24   

C       -4.2534858500   -1.0923242161    5.2354980099
C       -4.4072098588   -0.5769536975    3.9335697373
C       -2.0772034800   -1.5831338489    4.7813885962
C       -2.2078636669   -1.0693910705    3.4642395837
C       -1.1513787710   -0.5771747403    1.2116694518
C       -0.0365808365   -0.5511808993    0.4173173485
C       -1.0318912658   -1.0975458541    2.5615122465
C       -0.9539103722    0.9614747196   -1.2966597191
C        1.3946641873    0.0113694064   -1.4857863193
N       -3.0894702064   -1.6007588512    5.6753562293
N       -3.4001020743   -0.5586883174    3.0426397204
N        0.1311845658    0.1350126058   -0.7389896955
O        0.0352563950   -1.5613261365    2.9578164473
H       -5.1062359390   -1.0767141204    5.9038388771
H       -5.3716276469   -0.1805633900    3.6384567175
H       -1.1226702948   -1.9852372591    5.1009314914
H       -2.0825149832   -0.1364400146    0.8857074836
H        0.8384182156   -1.0821347906    0.7850100736
H       -1.3010772397    1.6871011216   -0.5541984622
H       -1.7912555711    0.3273827338   -1.6055243037
H       -0.6035535006    1.5169909468   -2.1722936919
H        1.2649323336   -0.6738516266   -2.3298103941
H        2.1932041082   -0.3740735029   -0.8437751767
H        1.7117695300    0.9887788538   -1.8625811426
24   

C       -4.2321398875   -1.0184334639    5.2397836843
C       -4.4227923101   -0.6467883151    3.8945196664
C       -2.0484075153   -1.4872921987    4.7980440630
C       -2.2158736684   -1.1168324745    3.4377670861
C       -1.2022955628   -0.8069492570    1.1327491529
C       -0.0831200804   -0.7225167118    0.3445910135
C       -1.0511098473   -1.1927808280    2.5234116666
C       -0.9490315173    0.9947065148   -1.1926672183
C        1.3969343647    0.0508986007   -1.4444518302
N       -3.0456800133   -1.4429450534    5.7078372259
N       -3.4306764578   -0.6903776570    2.9878254285
N        0.1175053245    0.0964684538   -0.7163210281
O        0.0386603230   -1.5742366277    2.9448449339
H       -5.0742101350   -0.9582804060    5.9190493196
H       -5.4038900408   -0.3125913380    3.5781402293
H       -1.0758840709   -1.8224513410    5.1397927126
H       -2.1488337779   -0.4115501157    0.7929659101
H        0.7926421099   -1.2635905270    0.6956510948
H       -1.3281418327    1.6080842168   -0.3690309352
H       -1.7709841659    0.4114770205   -1.6202160084
H       -0.5675188183    1.6690603750   -1.9658149085
H        1.2837048941   -0.5340661361   -2.3630203195
H        2.1796511647   -0.4090530594   -0.8327517843
H        1.7255134914    1.0626357677   -1.7017994159
24   

C       -4.1910277241   -0.9197449995    5.2363377777
C       -4.4145006287   -0.6940723587    3.8640326016
C       -1.9946534895   -1.3391780889    4.8070332985
C       -2.1950752607   -1.1150117651    3.4196170664
C       -1.2221540780   -0.9951239950    1.0789230888
C       -0.1104440819   -0.8616522626    0.2803462004
C       -1.0389014641   -1.2300990674    2.4984524936
C       -0.9411121761    1.0288000823   -1.0563377275
C        1.3948463306    0.0870320309   -1.4008715847
N       -2.9815079890   -1.2451185228    5.7244532084
N       -3.4328950487   -0.7875668674    2.9497706088
N        0.1101841978    0.0671360986   -0.6809429263
O        0.0735537428   -1.5155194566    2.9360108176
H       -5.0262854389   -0.8261472925    5.9202186259
H       -5.4128887680   -0.4342430540    3.5322653115
H       -1.0041249571   -1.5966871464    5.1640364852
H       -2.1866049682   -0.6547316124    0.7296376782
H        0.7679551112   -1.4145169275    0.6057624137
H       -1.3373377930    1.5289473657   -0.1668223788
H       -1.7552550713    0.5140230407   -1.5765902659
H       -0.5384547978    1.7984866855   -1.7222934841
H        1.2830140708   -0.3940202058   -2.3780463827
H        2.1680990605   -0.4446511767   -0.8371882130
H        1.7354214251    1.1170449962   -1.5452576780
24   

C       -4.1565241845   -0.8108132221    5.2137524164
C       -4.4051074120   -0.7371084763    3.8292966327
C       -1.9466875647   -1.1666270458    4.7954002989
C       -2.1723555192   -1.0950593792    3.3957717625
C       -1.2278250986   -1.1769450052    1.0417766891
C       -0.1363085179   -1.0005074660    0.2132370898
C       -1.0210837146   -1.2459163426    2.4735240764
C       -0.9492707636    1.0297844097   -0.9039724708
C        1.3673248294    0.0945173239   -1.3771030703
N       -2.9274532172   -1.0268566839    5.7136107008
N       -3.4297308482   -0.8769268474    2.9143527490
N        0.0891567358    0.0159717419   -0.6496483034
O        0.1106365463   -1.4230836947    2.9183143108
H       -4.9882002224   -0.6875764590    5.8973028063
H       -5.4182545671   -0.5594796985    3.4881676569
H       -0.9409997778   -1.3390742825    5.1611123518
H       -2.2124904404   -0.9074988514    0.6866153953
H        0.7474673829   -1.5658164673    0.5003299954
H       -1.3438707587    1.4192941124    0.0399668869
H       -1.7672085105    0.5943570355   -1.4868736144
H       -0.5343139102    1.8724466801   -1.4659170557
H        1.2361824131   -0.2659286759   -2.4026045220
H        2.1343515605   -0.5154533593   -0.8893225246
H        1.7283864544    1.1273279051   -1.4034117052
24   

C       -4.1297860202   -0.7228209522    5.1690043310
C       -4.3950040993   -0.8062037018    3.7882606656
C       -1.9052542431   -0.9787868730    4.7545470794
C       -2.1476240686   -1.0648709818    3.3586365830
C       -1.2183900738   -1.3388691455    1.0146078211
C       -0.1552188538   -1.1293624677    0.1424300428
C       -0.9971777362   -1.2357045441    2.4386459039
C       -0.9374928550    1.0226013946   -0.7296964731
C        1.3308564877    0.0748545226   -1.3800345356
N       -2.8848315355   -0.8085885493    5.6689803180
N       -3.4208522107   -0.9768095223    2.8773452865
N        0.0728800027   -0.0445770503   -0.6234618472
O        0.1485329312   -1.2880704998    2.8791929141
H       -4.9616091199   -0.5835137449    5.8492827666
H       -5.4204073873   -0.7280746890    3.4464099541
H       -0.8872952369   -1.0497575544    5.1200501496
H       -2.2231907583   -1.1604575505    0.6581505531
H        0.7283941185   -1.7213850894    0.3688607496
H       -1.2951582617    1.3128478862    0.2634590227
H       -1.7840671226    0.6824410752   -1.3345744311
H       -0.5085671036    1.9117427859   -1.2024700135
H        1.1547780655   -0.1551317480   -2.4358999875
H        2.0876458663   -0.6163729700   -0.9956199329
H        1.7314034844    1.0898616303   -1.2958461143
24   

C       -4.1395136149   -0.9097501503    5.3196894721
C       -4.4542554037   -1.3094034070    4.0062972464
C       -2.1238669468   -0.1347493794    4.5978047820
C       -2.4162075227   -0.5333667034    3.2668663986
C       -1.6524061687   -0.7380593230    0.8556710597
C       -0.5977991070   -0.9828354996   -0.0419927085
C       -1.3905066287   -0.3283084912    2.2149040421
C       -0.2483707722    1.3597700647   -0.6108187141
C        0.9705230604   -0.4926997560   -1.8447792198
N       -2.9749429420   -0.3149904014    5.6310948605
N       -3.6099194989   -1.1256058817    2.9760201298
N       -0.0331895475   -0.0787168568   -0.8505829540
O       -0.2998921350    0.1556676109    2.5055159210
H       -4.8638100435   -1.0913780937    6.1048745505
H       -5.4090793134   -1.7865058785    3.8190768583
H       -1.1700575817    0.3330301097    4.8130384479
H       -2.5795778875   -1.2678382802    0.6871623932
H       -0.4878543490   -2.0189490977   -0.3485191271
H       -1.3166899869    1.5781707051   -0.5150565730
H        0.1385225612    1.9495070711   -1.4476452062
H        0.2672583670    1.6727321095    0.3028610032
H        0.7433295288   -0.0479475791   -2.8186684772
H        0.9815674749   -1.5807157801   -1.9641419057
H        1.9676164772   -0.1717945076   -1.5260750376
24   

C       -4.0864012672   -0.8308002798    5.3035163958
C       -4.4016923749   -1.3390330693    4.0283440694
C       -2.1120446112   -0.0356666551    4.4952331134
C       -2.4053843276   -0.5424428170    3.2014542942
C       -1.6704110245   -0.8971669345    0.8017764989
C       -0.6427459250   -1.0746836508   -0.1276012808
C       -1.4059907922   -0.3667819504    2.1185802547
C       -0.2828950206    1.3211280245   -0.5256158683
C        0.9838150804   -0.4431922865   -1.8308853902
N       -2.9418906744   -0.1713835454    5.5522651246
N       -3.5780157436   -1.2012326851    2.9743728475
N       -0.0356841461   -0.1021281923   -0.8251401556
O       -0.3404368350    0.1935406420    2.3611025828
H       -4.7935405936   -0.9796413153    6.1109214930
H       -5.3402103892   -1.8632561553    3.8915576490
H       -1.1754040384    0.4839904826    4.6612736283
H       -2.5507380717   -1.5166273569    0.7010023197
H       -0.5776245135   -2.0690533026   -0.5594799616
H       -1.3429838749    1.4970179047   -0.3176531268
H       -0.0085836228    1.9437696571   -1.3827484416
H        0.3120863003    1.6376053237    0.3367666638
H        0.8043602083    0.1124041582   -2.7566114636
H        0.9610605537   -1.5113140002   -2.0689937210
H        1.9803666315   -0.1961038659   -1.4505975191
24   

C       -4.0703724339   -0.7897647966    5.2711354757
C       -4.3643972676   -1.3798802703    4.0265655089
C       -2.1193414600    0.0206928552    4.4225997600
C       -2.3916670693   -0.5674527870    3.1587285942
C       -1.6434146842   -1.0349694144    0.7869596276
C       -0.6717114441   -1.1362251631   -0.2011565663
C       -1.3992329374   -0.4120430837    2.0656800810
C       -0.3063399190    1.2885289950   -0.4851704311
C        0.9921891142   -0.4174756878   -1.8290987298
N       -2.9480999733   -0.0816043965    5.4842511275
N       -3.5414054000   -1.2765857160    2.9681387364
N       -0.0237050764   -0.1245103156   -0.8044243313
O       -0.3601873913    0.2055287686    2.2813936827
H       -4.7760044261   -0.9138054936    6.0840305661
H       -5.2859144223   -1.9396116247    3.9178029328
H       -1.2012125820    0.5799837084    4.5608997742
H       -2.4817981409   -1.7153973932    0.7311669112
H       -0.6438885039   -2.0892772273   -0.7212341740
H       -1.3509605857    1.4229162077   -0.1878907953
H       -0.1335471258    1.9183453385   -1.3631881242
H        0.3463216621    1.6342838432    0.3224705346
H        0.8389415803    0.2145505439   -2.7094270404
H        0.9374207714   -1.4618788618   -2.1520980489
H        1.9928394609   -0.2332323551   -1.4247871708
24   

C       -4.0643311738   -0.7850716320    5.2646949606
C       -4.3172692014   -1.4486719858    4.0484852571
C       -2.1369433230    0.0620975581    4.3981926592
C       -2.3687920739   -0.5981251779    3.1619624444
C       -1.5839466990   -1.1410987087    0.8205544347
C       -0.6917623998   -1.1569314940   -0.2359213362
C       -1.3770794820   -0.4434855110    2.0676102065
C       -0.3212409039    1.2827365073   -0.4374763619
C        0.9796295308   -0.3796695825   -1.8268264352
N       -2.9743961140   -0.0220190046    5.4546307903
N       -3.4851708824   -1.3645846912    2.9955259317
N       -0.0133507653   -0.1221979762   -0.7701481082
O       -0.3744738001    0.2368500846    2.2639984108
H       -4.7758764227   -0.8960933956    6.0743093422
H       -5.2143237655   -2.0497673414    3.9573989475
H       -1.2457451605    0.6673097519    4.5180199970
H       -2.3750569483   -1.8778659413    0.8005807872
H       -0.6998625480   -2.0717222551   -0.8213475706
H       -1.3525371595    1.3874022728   -0.0867865278
H       -0.2128083817    1.9162949887   -1.3229951625
H        0.3619840980    1.6491666751    0.3350859534
H        0.8488105909    0.3238076194   -2.6550800494
H        0.8747687938   -1.3921491991   -2.2293244177
H        1.9908561097   -0.2710111413   -1.4215821663
24   

C       -4.0802514927   -0.7797635186    5.2845517707
C       -4.2723512398   -1.5103114342    4.0959559346
C       -2.1776544243    0.1225631230    4.4189293362
C       -2.3491980677   -0.6031096024    3.2096784456
C       -1.4985354885   -1.1997773682    0.9056888591
C       -0.6867210470   -1.1501980025   -0.2079793935
C       -1.3497780076   -0.4371435998    2.1234417667
C       -0.2497545538    1.2842167943   -0.3635867008
C        0.9918161603   -0.3811929430   -1.7937935365
N       -3.0332551297    0.0441155272    5.4611912679
N       -3.4216151643   -1.4329084614    3.0575102274
N        0.0381600647   -0.1236503713   -0.7009454782
O       -0.3945187526    0.3106342950    2.3071755589
H       -4.8045685599   -0.8880212219    6.0831385678
H       -5.1371622110   -2.1581896464    4.0142570837
H       -1.3216988401    0.7785269357    4.5280288951
H       -2.2439466212   -1.9830068916    0.9122222176
H       -0.7390449587   -2.0376660730   -0.8319898369
H       -1.2720490088    1.3979757409    0.0098981232
H       -0.1559717418    1.9163060437   -1.2518084673
H        0.4548351930    1.6456961243    0.3920125222
H        0.8280173961    0.3193055970   -2.6187793638
H        0.8769373361   -1.3953517959   -2.1893345621
H        2.0171411949   -0.2688670779   -1.4269836665
24   

C       -4.1094083990   -0.8451886592    5.2762669101
C       -4.2331915274   -1.6263875983    4.1110972632
C       -2.2482259789    0.1418102755    4.4130968110
C       -2.3521501392   -0.6327180769    3.2264508688
C       -1.4375818495   -1.2360624583    0.9483084519
C       -0.7074214669   -1.1301505869   -0.2149245612
C       -1.3507522965   -0.4327926589    2.1469945195
C       -0.1227074289    1.2774788629   -0.3201441352
C        0.9586043614   -0.4134402304   -1.8363353559
N       -3.1174953498    0.0461545948    5.4425345810
N       -3.3684955844   -1.5323431046    3.0856369284
N        0.0783114649   -0.1372382502   -0.6875251050
O       -0.4528607715    0.3839881981    2.3215150158
H       -4.8422433905   -0.9693133605    6.0647097997
H       -5.0558306804   -2.3278520040    4.0367319608
H       -1.4375836459    0.8542688844    4.5135435721
H       -2.1425438949   -2.0556019288    0.9707216571
H       -0.8188778555   -1.9917392928   -0.8669268256
H       -1.1366854393    1.4446557248    0.0560553662
H        0.0087808071    1.9215682681   -1.1949195865
H        0.6048642491    1.5799749416    0.4396120052
H        0.7075072506    0.2417691114   -2.6765749409
H        0.8569112082   -1.4493843682   -2.1750516180
H        2.0031780209   -0.2498407073   -1.5527717423
24   

C       -4.1610917643   -1.0384336973    5.2441535075
C       -4.0862544506   -1.9025397366    4.1351158262
C       -2.6517491786    0.3524634425    4.2581080780
C       -2.5567398587   -0.5028558157    3.1272710467
C       -1.5270759145   -0.9974824839    0.8717003549
C       -0.7970772749   -0.9363281863   -0.3019619378
C       -1.6409912070   -0.1278209898    2.0157443199
C        0.3772183338    1.2555193039   -0.2984967917
C        0.6943009790   -0.4091358646   -2.1546180531
N       -3.4475854558    0.0978897678    5.3195833933
N       -3.2958309478   -1.6493520341    3.0774495963
N        0.0823792326   -0.0751386148   -0.8552301653
O       -0.9877746441    0.9032367852    2.1186463954
H       -4.8183598475   -1.3025868316    6.0641017832
H       -4.6863410350   -2.8049201695    4.1331454636
H       -2.0612829251    1.2608190329    4.2886830341
H       -2.1367240115   -1.8886483900    0.9241431224
H       -0.9811646487   -1.8191598093   -0.9074505410
H        0.9059353161    1.8693774652   -1.0338420540
H        1.0159561999    1.1665920836    0.5855370565
H       -0.5467739694    1.7859011266   -0.0541185074
H        0.5012144759    0.3888127596   -2.8789107323
H        0.2836780546   -1.3370241159   -2.5651104954
H        1.7754214395   -0.5353566529   -2.0388502303
24   

C       -4.0074249583   -0.9153801652    5.3366430797
C       -3.7832001393   -1.9201999300    4.3757742836
C       -2.9579899010    0.5962935214    3.9962151171
C       -2.7172288080   -0.3996998188    3.0119026637
C       -1.7574556139   -1.0296602556    0.7596176500
C       -1.0039566311   -0.9402337189   -0.3901528568
C       -1.9841780122   -0.0257730684    1.7746067114
C        0.7454098516    0.7197589829    0.1865087850
C        0.3726812905   -0.0398019496   -2.1824453890
N       -3.5995765477    0.3528304441    5.1596630134
N       -3.1446744994   -1.6792616029    3.2171748967
N       -0.0712110578   -0.0422867246   -0.7774563231
O       -1.6251046245    1.1381453959    1.6327208012
H       -4.5271654750   -1.1777506557    6.2504966944
H       -4.1363812322   -2.9246685240    4.5773280783
H       -2.6127661475    1.6090643022    3.8231704973
H       -2.2746710365   -1.9698505834    0.8924209238
H       -1.1830991486   -1.7592312899   -1.0808158061
H        1.7825146623    0.7821903279   -0.1568329066
H        0.7568163963    0.2292541979    1.1647263940
H        0.3580589094    1.7381183049    0.2913686509
H        0.1518632561    0.9293810031   -2.6409536603
H       -0.1388532159   -0.8145522573   -2.7623905056
H        1.4491090877   -0.2292881487   -2.2436837120
24   

C       -3.9779888929   -0.9011043682    5.3082464343
C       -3.6837812467   -1.9395613850    4.4035660761
C       -2.9952045694    0.5969939987    3.9035811103
C       -2.6863101072   -0.4327166733    2.9748123056
C       -1.6850483990   -1.1161754510    0.7567956178
C       -1.0075441760   -0.9746170104   -0.4359365312
C       -1.9688567400   -0.0803336883    1.7229003558
C        0.8101984858    0.5707816098    0.2341363414
C        0.3965183454   -0.0232756069   -2.1818587896
N       -3.6384948722    0.3773838072    5.0708158072
N       -3.0433133267   -1.7224001096    3.2413280444
N       -0.0246743276   -0.1127598080   -0.7730684033
O       -1.6758430541    1.0935346372    1.5188929455
H       -4.4965487098   -1.1451853806    6.2278205437
H       -3.9835955738   -2.9506982735    4.6526217515
H       -2.7066734486    1.6177142283    3.6805653610
H       -2.1603439466   -2.0736934868    0.9192530535
H       -1.2270529191   -1.7517568058   -1.1622925324
H        1.8552428225    0.5948656433   -0.0892395068
H        0.7787151119    0.0449232935    1.1933056189
H        0.4694340074    1.6014759739    0.3740849810
H        0.0951772203    0.9427275170   -2.5995830887
H       -0.0600923554   -0.8157900911   -2.7831841860
H        1.4831671593   -0.1257091087   -2.2644927623
24   

C       -3.9595285177   -0.8557439502    5.3282157811
C       -3.5980835271   -1.9146278744    4.4728543920
C       -3.0232238630    0.6301663441    3.8795299872
C       -2.6488242394   -0.4201020747    2.9993622920
C       -1.5889240426   -1.1393006235    0.8193245903
C       -1.0172925371   -0.9482983975   -0.4253713325
C       -1.9398225760   -0.0829904797    1.7389328737
C        0.8515556138    0.5268268495    0.2534522043
C        0.3847544653    0.0027116754   -2.1741543053
N       -3.6765107705    0.4270237184    5.0441766265
N       -2.9463741690   -1.7139310404    3.3138911485
N        0.0032157822   -0.1335389960   -0.7582619303
O       -1.7101519098    1.0949820862    1.4814892226
H       -4.4847944121   -1.0870761059    6.2472802830
H       -3.8549249163   -2.9281010671    4.7578485750
H       -2.7818484804    1.6539067546    3.6176713606
H       -2.0062716299   -2.1166380935    1.0186075402
H       -1.2944119574   -1.6897160031   -1.1691024256
H        1.8915617412    0.5605556359   -0.0850002605
H        0.8350650250   -0.0219969122    1.2000422788
H        0.5106518049    1.5526848482    0.4246812638
H        0.0571556715    0.9751196339   -2.5558678211
H       -0.0745228258   -0.7813962756   -2.7843644248
H        1.4702992378   -0.0788664303   -2.2879099514
24   

C       -3.9707492030   -0.8505168249    5.3386730601
C       -3.5333257682   -1.9131848541    4.5244053888
C       -3.0766848339    0.6402233709    3.8683753653
C       -2.6277467302   -0.4138381272    3.0288339484
C       -1.4873712244   -1.1348547852    0.8876276936
C       -1.0306995169   -0.9030799689   -0.4034627538
C       -1.9192635627   -0.0760583985    1.7687748210
C        0.8846154919    0.5202621239    0.2307875842
C        0.3630213150   -0.0056719046   -2.1889457613
N       -3.7467255908    0.4366586565    5.0233761285
N       -2.8638283831   -1.7119254096    3.3757074213
N        0.0270637522   -0.1544699043   -0.7631780163
O       -1.7523062507    1.1034343136    1.4713300542
H       -4.5075373866   -1.0825466226    6.2508801760
H       -3.7455705025   -2.9301053453    4.8328686210
H       -2.8838002282    1.6671309963    3.5800210047
H       -1.8351514205   -2.1317389167    1.1205513946
H       -1.3834145370   -1.6092145128   -1.1494712748
H        1.9095608082    0.6010471039   -0.1438929006
H        0.9230857920   -0.0466676735    1.1660786661
H        0.5104074573    1.5283311591    0.4346557021
H        0.0772343044    0.9923831332   -2.5366966523
H       -0.1629733639   -0.7477463589   -2.7978381245
H        1.4373935082   -0.1454433238   -2.3442163466
24   

C       -4.0150751829   -0.8741986695    5.3464482753
C       -3.4928843382   -1.9224649569    4.5640278731
C       -3.1631287920    0.6426089489    3.8776609516
C       -2.6304486286   -0.3968439979    3.0699035191
C       -1.3889933995   -1.0804451659    0.9687662336
C       -1.0378564453   -0.8233023927   -0.3585044527
C       -1.9153736038   -0.0392283091    1.8196601056
C        0.9334220072    0.5337664960    0.1897104390
C        0.3413675367   -0.0337905434   -2.2078858306
N       -3.8547247521    0.4187830202    5.0160910260
N       -2.8010147617   -1.7007240795    3.4324927756
N        0.0577879911   -0.1661547357   -0.7693851303
O       -1.8121154966    1.1408134522    1.4955988206
H       -4.5663702437   -1.1226817726    6.2455772056
H       -3.6570877930   -2.9450930751    4.8827938276
H       -3.0214614562    1.6740034067    3.5759046270
H       -1.6556599297   -2.0951818105    1.2296396231
H       -1.4863740964   -1.4871917424   -1.0917264341
H        1.9240847334    0.6946204444   -0.2465467756
H        1.0675176956   -0.0597025316    1.0995396776
H        0.5085954870    1.5075727069    0.4525487234
H        0.1340383733    0.9898790441   -2.5363713545
H       -0.2791026257   -0.7167844298   -2.7966420095
H        1.3902557029   -0.2711227470   -2.4112716436
24   

C       -4.0763378302   -0.9510852056    5.3574148253
C       -3.4489327203   -1.9579056660    4.5981670652
C       -3.3017032269    0.6225864849    3.9054898852
C       -2.6648759054   -0.3748517388    3.1210654429
C       -1.3085930983   -0.9621513571    1.0583168571
C       -1.0323479562   -0.7064833314   -0.2967186934
C       -1.9521130029    0.0311661123    1.8850022836
C        1.0140374999    0.5438886374    0.1305317985
C        0.3156393638   -0.0753269013   -2.2292639270
N       -4.0076461748    0.3493715425    5.0241973881
N       -2.7414712274   -1.6864419125    3.4873308169
N        0.0921035585   -0.1630569018   -0.7768243905
O       -1.9406215173    1.2099629674    1.5408567383
H       -4.6349024929   -1.2390685385    6.2401268394
H       -3.5430180750   -2.9892637580    4.9172529749
H       -3.2330144655    1.6603246761    3.6000780067
H       -1.4573304731   -1.9930691044    1.3477895434
H       -1.6009197304   -1.3061213230   -1.0015149182
H        1.9519239815    0.7778487651   -0.3826798942
H        1.2550269140   -0.0802304965    0.9968880944
H        0.5629541415    1.4802386137    0.4746276714
H        0.2033254250    0.9612636941   -2.5633519724
H       -0.4037339699   -0.6925290442   -2.7767234447
H        1.3216754389   -0.4269490180   -2.4785265876
24   

C       -3.8459787548   -0.9261529263    5.3568842069
C       -2.9461016986   -1.7534117152    4.6571568744
C       -4.0507559506    0.4018348076    3.5183200239
C       -3.1457245800   -0.4164735666    2.7930423295
C       -1.8982447211   -0.8740691575    0.6325614903
C       -1.3021433039   -0.3520241987   -0.5107160412
C       -2.8067528553   -0.0504125972    1.3965498142
C        0.9575113986   -0.1697264540    0.4189717362
C        0.4000273418    0.7270862429   -1.8943545776
N       -4.4092162007    0.1589752523    4.7978702203
N       -2.5895748260   -1.5132692662    3.3831559617
N       -0.0270937566    0.0595036147   -0.6529545642
O       -3.2925902931    0.9538593224    0.8818835004
H       -4.0896856360   -1.1761047318    6.3826754440
H       -2.5236178164   -2.6134453242    5.1633832936
H       -4.4828941878    1.2702206373    3.0345503339
H       -1.3954601563   -1.6725315620    1.1599926846
H       -2.0036274242    0.0846094129   -1.2176850363
H        1.2272103799   -1.2296902015    0.4638336491
H        0.5511866769    0.1420823495    1.3865465959
H        1.8665223693    0.4119467452    0.2361587011
H        1.0313318686    1.5910903347   -1.6647530979
H       -0.4628970171    1.0854278088   -2.4646646910
H        0.9633390203    0.0270398241   -2.5199452110
24   

C       -3.9507362675   -0.9757952272    5.3483195362
C       -2.9333864859   -1.7095086075    4.7075943823
C       -4.2201629419    0.2848867553    3.4712419518
C       -3.1971732014   -0.4395384980    2.8051846867
C       -1.7983620649   -0.7910668878    0.7179543541
C       -1.2554028616   -0.2463725925   -0.4298881545
C       -2.8383411926   -0.0645586309    1.4161157633
C        1.0814935888   -0.2561707234    0.3249285515
C        0.4147059083    0.7616829226   -1.9076460360
N       -4.6063726715    0.0277478896    4.7398402573
N       -2.5487994777   -1.4550301024    3.4445575848
N        0.0357580774    0.0866061450   -0.6547459977
O       -3.4149840434    0.8648164173    0.8559472099
H       -4.2107713569   -1.2318316488    6.3685851223
H       -2.4408581856   -2.5067686591    5.2518267210
H       -4.7243086542    1.0898864962    2.9490461579
H       -1.2344566786   -1.5259630202    1.2749436232
H       -1.9758540491    0.2301660725   -1.0908915859
H        1.2637328958   -1.3355987808    0.3203761201
H        0.7821876394    0.0568941888    1.3303387763
H        2.0186768598    0.2540079555    0.0810984609
H        1.1363535136    1.5597999329   -1.7076692196
H       -0.4583407459    1.2133643740   -2.3894134979
H        0.8602214381    0.0404670421   -2.6005628303
24   

C       -4.0268563450   -1.0458430664    5.3525523819
C       -2.9124182141   -1.6762221051    4.7653992791
C       -4.3376555003    0.1690380556    3.4521004356
C       -3.2172615769   -0.4515872312    2.8398222141
C       -1.6902465153   -0.6684362830    0.8245126522
C       -1.2055934150   -0.1196954082   -0.3397044608
C       -2.8377482657   -0.0525357718    1.4631490945
C        1.1808695106   -0.3083574837    0.2266167884
C        0.4148164261    0.7712101505   -1.9435941756
N       -4.7526159243   -0.1179147139    4.7050350326
N       -2.4984563062   -1.3914908773    3.5181058665
N        0.0877957243    0.1209706189   -0.6632451466
O       -3.4875675015    0.8033236610    0.8667325011
H       -4.3057905119   -1.3208002996    6.3628509274
H       -2.3674320351   -2.4164772632    5.3393079579
H       -4.8968320850    0.9154608550    2.8997552766
H       -1.0792438583   -1.3488315930    1.4005046247
H       -1.9440015010    0.3756488215   -0.9662258946
H        1.2617425159   -1.4001193022    0.2255605003
H        1.0022300912    0.0416874256    1.2483472090
H        2.1358871458    0.1085091521   -0.1083686531
H        1.2183885203    1.5014305395   -1.8064273830
H       -0.4537143419    1.3019135618   -2.3465297952
H        0.7336535129    0.0199442300   -2.6734776785
24   

C       -4.1020044636   -1.1253115081    5.3346091254
C       -2.9029326662   -1.6437275804    4.8076846374
C       -4.4357222883    0.0490571503    3.4128249708
C       -3.2305479706   -0.4593805242    2.8608533769
C       -1.5919901629   -0.5338276721    0.9257402065
C       -1.1515387412   -0.0024913018   -0.2593363654
C       -2.8262820690   -0.0314188366    1.4999832321
C        1.2482033698   -0.3905731215    0.1312685288
C        0.4143605309    0.7300518527   -1.9916447041
N       -4.8823136044   -0.2747101067    4.6457079410
N       -2.4571797417   -1.3220112738    3.5804687870
N        0.1306334915    0.1237472106   -0.6797407314
O       -3.5314345101    0.7502101509    0.8655036523
H       -4.4028853079   -1.4247614709    6.3315570333
H       -2.3173658195   -2.3258371733    5.4128094046
H       -5.0379547804    0.7350027683    2.8282613677
H       -0.9497719695   -1.1671927853    1.5208380303
H       -1.8986697160    0.5063980559   -0.8641401972
H        1.2195356548   -1.4845209645    0.1631080735
H        1.1940220381    0.0045912704    1.1506999312
H        2.2076457396   -0.0841646140   -0.2972754782
H        1.2818718816    1.3940018813   -1.9253383434
H       -0.4357863643    1.3250846055   -2.3403075770
H        0.6175122694   -0.0530764019   -2.7293519009
24   

C       -4.2876186145   -1.1537678192    5.2364032443
C       -4.3654778701   -0.4344071890    4.0278015536
C       -2.1669721793   -1.7966580184    4.7140628297
C       -2.2217166376   -1.0788095190    3.4903036734
C       -1.0817599591   -0.3640804278    1.3403986046
C       -0.0069655727   -0.4473399251    0.4962869455
C       -1.0405879459   -1.0945406155    2.5940329725
C       -1.1367493283    0.4858143911   -1.4835108854
C        1.3048885514   -0.2126532757   -1.5555608780
N       -3.1902227006   -1.8425788447    5.5944129332
N       -3.3474455891   -0.3880137023    3.1504081445
N        0.0416192895   -0.0866183743   -0.8087986407
O       -0.0342095630   -1.7227769032    2.9156971741
H       -5.1450301448   -1.1496527548    5.8989236469
H       -5.2785093463    0.1012035657    3.7958247549
H       -1.2648794124   -2.3407845748    4.9691802711
H       -1.9844559742    0.1533915621    1.0490636882
H        0.8897441369   -0.9188503184    0.8916677714
H       -1.3798618746    1.4633962994   -1.0547381632
H       -1.9979425619   -0.1818836887   -1.3794332904
H       -0.9413693671    0.6194030916   -2.5521848492
H        1.1161368526   -0.6027129166   -2.5605939361
H        1.9899771133   -0.9028524075   -1.0528743743
H        1.7914911243    0.7648741382   -1.6354840151
24   

C       -4.2752386816   -1.1564973931    5.2388902156
C       -4.3921308990   -0.5143978264    3.9905785929
C       -2.1137192023   -1.6875924036    4.7603167849
C       -2.2075988367   -1.0471696894    3.4965839812
C       -1.1081744482   -0.3966032440    1.3068941756
C       -0.0100437265   -0.4225271490    0.4893267757
C       -1.0238906758   -1.0417877648    2.6034543446
C       -1.0194925018    0.8580499616   -1.3553288519
C        1.3436789094   -0.0572048629   -1.5146170439
N       -3.1373162530   -1.7495531806    5.6392780510
N       -3.3736428841   -0.4517056036    3.1147355731
N        0.1003436170    0.1199367658   -0.7447931056
O        0.0175923167   -1.5871847833    2.9624714075
H       -5.1355403306   -1.1711576946    5.8975028319
H       -5.3368408391   -0.0544713736    3.7254223937
H       -1.1799691527   -2.1565811779    5.0485642904
H       -2.0258349781    0.0857387276    1.0025765221
H        0.8708527777   -0.9387979677    0.8636132394
H       -1.3293236250    1.6845820434   -0.7078742893
H       -1.8686147891    0.1873975397   -1.5221931171
H       -0.7216730268    1.2788265214   -2.3209430661
H        1.1848556123   -0.7785430954   -2.3227129318
H        2.1525896957   -0.4258516834   -0.8756831310
H        1.6643227101    0.8978153131   -1.9425513383
