26   
Generated by ForceBalance from scan.xyz: Frame 1 of 24
C        6.1135461668    0.3229476530    1.2658015230
C        5.7257899738    1.1029382312    0.2037576141
C        4.0436373477   -0.1706958840    0.8873469387
C        1.8392814914   -1.4133207086   -1.1772432176
C        2.6540690081   -2.0687873925    1.8825876437
C        2.1039732602   -0.7946607934    2.4642764808
C        2.6996023711   -0.7951444559    1.0602096967
C        0.6859982441   -1.2312154245   -2.1522408279
C        3.6110883114    1.3781719362   -1.1134404631
N        5.0638805123   -0.4634814482    1.6824501241
N        4.3925098635    0.7927333350   -0.0312615546
N        1.7463596400   -0.6880088521   -0.0140516338
O        2.7893372010   -2.1498667865   -1.4205909391
H        7.0819495385    0.2784969438    1.7471450022
H        6.2523066158    1.8246874882   -0.4046751459
H        3.6083540644   -2.4247375131    2.2513374128
H        1.9545820263   -2.8235427790    1.5402422351
H        1.0251083280   -0.6864886483    2.5491644780
H        2.6891141465   -0.2912646248    3.2264275868
H       -0.0549183383   -0.4936174116   -1.8300460403
H        0.1886673276   -2.1960519527   -2.2858327311
H        1.0881002563   -0.9344158888   -3.1243160477
H        3.4166568545    0.6435464216   -1.8982973636
H        4.1842893240    2.2028732189   -1.5404701146
H        2.6636663156    1.7746319161   -0.7435412104
H        0.9478000716   -0.0825048433    0.1178259317
26   
Generated by ForceBalance from scan.xyz: Frame 2 of 24
C        6.1764261795    0.0941381223    1.0351269715
C        5.7278104033    1.0283201201    0.1320257985
C        4.0551132389   -0.2511264065    0.8278826313
C        1.9163818817   -1.5266808415   -1.1891691950
C        2.5745175492   -1.9720363423    1.9915032295
C        2.0590455508   -0.6246720274    2.4277725707
C        2.6858325082   -0.7963572555    1.0475451470
C        0.8259115263   -1.3650883418   -2.2382111086
C        3.4813947652    1.5927303810   -0.8458175934
N        5.1312662449   -0.6945197401    1.4605846022
N        4.3629610696    0.8119480006    0.0093143513
N        1.7647319987   -0.7555062357   -0.0608220168
O        2.8630973574   -2.2894312670   -1.3442329735
H        7.1857281016   -0.0592688506    1.3946421946
H        6.2316011793    1.7992243747   -0.4342112395
H        3.5059528379   -2.3277161116    2.4148196354
H        1.8510379628   -2.7301675606    1.7126576269
H        0.9830671733   -0.4729480120    2.4744931582
H        2.6401805937   -0.0655335760    3.1536803811
H        0.0820874656   -0.6014043793   -1.9919121193
H        0.3177726777   -2.3254521178   -2.3625399482
H        1.2918265590   -1.1164353404   -3.1952198971
H        3.1677261886    1.0202287128   -1.7226712856
H        4.0198498203    2.4814106288   -1.1799953296
H        2.5959013483    1.9178333666   -0.2942816163
H        0.9787586988   -0.1225829736   -0.0069131419
26   
Generated by ForceBalance from scan.xyz: Frame 3 of 24
C        6.2088051549   -0.1242529239    0.8672785942
C        5.7372088250    0.9487775726    0.1462513780
C        4.0612641013   -0.3293856416    0.8390539282
C        1.9136842485   -1.7170824356   -1.1005248613
C        2.5079874270   -1.9066427336    2.1045847984
C        2.0222336598   -0.5153508327    2.4261234594
C        2.6736769527   -0.8128154698    1.0792192427
C        0.8930960764   -1.5565961222   -2.2184346634
C        3.4286288544    1.7421026121   -0.4912049571
N        5.1611974432   -0.9113221494    1.2908118145
N        4.3578362021    0.8190556679    0.1393803163
N        1.7818183461   -0.8305936686   -0.0553171155
O        2.7869433948   -2.5749614758   -1.1337846782
H        7.2361509490   -0.3763017917    1.0965606429
H        6.2335641455    1.7672892042   -0.3564587338
H        3.4195928449   -2.2597965083    2.5711066806
H        1.7683925435   -2.6635926700    1.8694403999
H        0.9501560734   -0.3335561067    2.4342906132
H        2.5988333435    0.0825257987    3.1247524441
H        0.1658380603   -0.7572975210   -2.0463148487
H        0.3587235690   -2.5023418281   -2.3408250272
H        1.4253622001   -1.3589233715   -3.1529219170
H        3.0407381763    1.3383023969   -1.4312635978
H        3.9455408068    2.6815475821   -0.6956089716
H        2.5912938783    1.9534475873    0.1793939981
H        1.0560246422   -0.1290983384   -0.1056416577
26   
Generated by ForceBalance from scan.xyz: Frame 4 of 24
C        6.2534679159   -0.1785920198    0.6786372862
C        5.7786785532    1.0052719059    0.1588083302
C        4.1040675831   -0.3000187999    0.8067487201
C        1.9027529334   -1.8808341680   -1.0276372754
C        2.5005759698   -1.7884388161    2.1200534993
C        2.0209502997   -0.3766670826    2.3482687695
C        2.7075035341   -0.7594463871    1.0402770332
C        0.9705809827   -1.7353692793   -2.2226677090
C        3.4559136227    1.9379998576   -0.1892608843
N        5.2068556074   -0.9818406786    1.0732716108
N        4.4002586923    0.9267798964    0.2526892884
N        1.8535894320   -0.8431500122   -0.1210516571
O        2.6355627941   -2.8511898801   -0.8894916508
H        7.2827971713   -0.4956606486    0.7864256245
H        6.2736806305    1.8730717923   -0.2548875055
H        3.3949141198   -2.1266483783    2.6293356561
H        1.7613836683   -2.5524257377    1.9102397190
H        0.9512615189   -0.1869788403    2.3111695195
H        2.5801489979    0.2561442744    3.0306777436
H        0.3020112042   -0.8710305226   -2.1636629812
H        0.3717517691   -2.6450391899   -2.3111215654
H        1.5767997508   -1.6522042189   -3.1293670210
H        3.0733539425    1.7160899271   -1.1914635689
H        3.9499990172    2.9114186789   -0.2084367242
H        2.6177540830    1.9945228299    0.5101257866
H        1.2403902001   -0.0643769750   -0.3199951099
26   
Generated by ForceBalance from scan.xyz: Frame 5 of 24
C        6.0837706259   -0.2365918828    0.5332140067
C        5.6540041980    1.0366828789    0.2288596173
C        3.9440029655   -0.2599545288    0.8015672465
C        1.6975439032   -1.9439676459   -0.9718467688
C        2.2606075461   -1.6557762748    2.1277671484
C        1.8088727848   -0.2247409798    2.2758518337
C        2.5319733588   -0.6825706747    1.0121922234
C        0.9090468100   -1.7921709162   -2.2656814275
C        3.3766528513    2.1216253879    0.1374110953
N        5.0156267297   -1.0331127598    0.8797219056
N        4.2831488800    1.0196998639    0.4100788580
N        1.7252803081   -0.8139987202   -0.1786410851
O        2.2547435506   -2.9905236129   -0.6701992256
H        7.0961513845   -0.6197584126    0.5238072346
H        6.1780097840    1.9307939062   -0.0800244055
H        3.1271077739   -1.9930832039    2.6840223366
H        1.5125757291   -2.4130413626    1.9281094865
H        0.7468276800   -0.0128113381    2.1875591699
H        2.3566586909    0.4239138785    2.9532045216
H        0.2654169795   -0.9073587036   -2.2905735273
H        0.2989794169   -2.6860095550   -2.4108555440
H        1.6157821725   -1.7342608652   -3.0995150669
H        3.0565134824    2.1240960465   -0.9110885072
H        3.8742505153    3.0698141505    0.3532176622
H        2.4975658946    2.0416341194    0.7797770658
H        1.2806272316    0.0205823077   -0.5384556001
26   
Generated by ForceBalance from scan.xyz: Frame 6 of 24
C        6.0365724720   -0.2635535039    0.2358721333
C        5.6533249305    1.0579310923    0.1633415567
C        3.9287555664   -0.2377188446    0.6977018084
C        1.6235097495   -2.0764805889   -0.9107128814
C        2.2453431233   -1.5622561042    2.1113651221
C        1.7904920440   -0.1278241014    2.1780591727
C        2.5186420937   -0.6511364708    0.9424933206
C        0.9272561927   -1.9936193343   -2.2626202338
C        3.4551963973    2.2531698099    0.4153295321
N        4.9599810164   -1.0567002372    0.5590731827
N        4.3028828640    1.0721885495    0.4581207741
N        1.7223514934   -0.8694216288   -0.2436503208
O        2.0429923739   -3.1355441306   -0.4647438423
H        7.0223555986   -0.6828480270    0.0794186566
H        6.1988412494    1.9658885862   -0.0550034670
H        3.1104595585   -1.8636029161    2.6904603833
H        1.5044084801   -2.3353818596    1.9537939918
H        0.7292108273    0.0775855293    2.0714403949
H        2.3328869118    0.5547083403    2.8260402245
H        0.3786715257   -1.0601992243   -2.4221186055
H        0.2396963473   -2.8367357067   -2.3550183375
H        1.6831934114   -2.0937537993   -3.0479451172
H        3.3476237886    2.6177547074   -0.6119485538
H        3.8832602035    3.0510916883    1.0291958869
H        2.4694422273    2.0076667769    0.8088789645
H        1.4200858397   -0.0451454657   -0.7477385153
26   
Generated by ForceBalance from scan.xyz: Frame 7 of 24
C        5.9509111249   -0.2686021117   -0.0587563586
C        5.6469622333    1.0667316339    0.0931023113
C        3.8818366856   -0.2020471024    0.5543082137
C        1.5657976106   -2.1841843488   -0.8913493107
C        2.1751497893   -1.4157187218    2.0608232945
C        1.7227963354    0.0183902396    2.0067696208
C        2.4700387421   -0.5964188811    0.8268196364
C        0.9783263718   -2.2055849546   -2.2960114136
C        3.5733644419    2.3312651959    0.7375987908
N        4.8496042723   -1.0426401207    0.2184374710
N        4.3175031831    1.1083501244    0.4715132861
N        1.6964281387   -0.9160405191   -0.3515433515
O        1.8759184524   -3.2123814089   -0.3055072385
H        6.8951056649   -0.7097612495   -0.3519963429
H        6.2333548136    1.9675854610   -0.0249344128
H        3.0296094993   -1.6686119074    2.6782904342
H        1.4389362939   -2.2011537270    1.9526848210
H        0.6650449146    0.2160132476    1.8608233768
H        2.2467802569    0.7457961659    2.6187329969
H        0.4265800362   -1.2965706308   -2.5550539270
H        0.3180120456   -3.0696172385   -2.3883085027
H        1.7975693736   -2.3309362966   -3.0117325667
H        3.9537389704    3.1295368339    0.0965436234
H        3.6728533534    2.6411907714    1.7833650829
H        2.5160428821    2.1833437935    0.5173837984
H        1.5102950133   -0.1447906961   -0.9808653842
26   
Generated by ForceBalance from scan.xyz: Frame 8 of 24
C        4.3045616463    1.9544910714   -1.0303353267
C        5.1288174466    1.5712353859    0.0039264404
C        3.4993847671    0.0891055856   -0.2937998007
C        0.1968058953   -0.3796540063   -0.5821371506
C        2.6317114968   -2.2515219898   -0.9981359329
C        3.0433353929   -2.4016415617    0.4397432506
C        2.5587721521   -1.0504249970   -0.0780910944
C       -0.9505044200    0.4191171959    0.0197418264
C        5.1373987872   -0.3285948077    1.6391704730
N        3.2955024259    1.0380152937   -1.1974267057
N        4.6030607768    0.3849102050    0.4863765980
N        1.2282908167   -0.6389185412    0.3075113853
O        0.1802687489   -0.7613131119   -1.7440654831
H        4.3825797513    2.8338743567   -1.6570271645
H        6.0169139963    2.0139382441    0.4332707703
H        3.4075679431   -2.2227414815   -1.7553021281
H        1.6881182501   -2.6673839692   -1.3246762955
H        2.3694477084   -2.9228306402    1.1127040763
H        4.0971029153   -2.5327180379    0.6566372499
H       -1.0293339968    0.3150748963    1.1064809124
H       -1.8850138938    0.1020449687   -0.4455016648
H       -0.7950334398    1.4773554490   -0.2164171367
H        5.8118274970   -1.1364371620    1.3370465805
H        4.3269940149   -0.7481823678    2.2359141311
H        5.6945662871    0.3758706236    2.2596040784
H        1.1706233509   -0.1486426178    1.1921496416
26   
Generated by ForceBalance from scan.xyz: Frame 9 of 24
C        4.1441423214    2.0696413783   -0.8323425245
C        5.1551450342    1.5660237968   -0.0480467157
C        3.4577709757    0.1351268921   -0.1487288366
C        0.2584485281   -0.4066937075   -0.7211995638
C        2.7384876994   -2.2712232230   -0.8671009918
C        2.9957370753   -2.3822262746    0.6105444620
C        2.5564718568   -1.0487259208    0.0107245075
C       -0.9099237939    0.4507652720   -0.2609338819
C        5.4753007441   -0.5031567954    1.3195429982
N        3.0997176253    1.1797141355   -0.8852423436
N        4.7115366695    0.3303444150    0.3991982486
N        1.1896413849   -0.6643071730    0.2768472186
O        0.3424247428   -0.8384754213   -1.8626059625
H        4.1110881532    3.0163254844   -1.3563868145
H        6.1212949215    1.9565247092    0.2396113879
H        3.5948005608   -2.2510740309   -1.5332970622
H        1.8408608836   -2.7037030060   -1.2880118384
H        2.2475085368   -2.8811720699    1.2180365094
H        4.0145026931   -2.5208108092    0.9459105869
H       -1.1757524096    0.2790896167    0.7871504806
H       -1.7734893912    0.2487954453   -0.8954990586
H       -0.6313833835    1.5040325528   -0.3773831702
H        5.8917320227   -1.3816578791    0.8175398351
H        4.8540984615   -0.8254982973    2.1569085289
H        6.3018203477    0.0895678693    1.7143840933
H        1.0737717624   -0.1088580961    1.1166128793
26   
Generated by ForceBalance from scan.xyz: Frame 10 of 24
C        3.9684528533    2.1924051453   -0.5071642528
C        5.0996901528    1.5928222990   -0.0097830592
C        3.3771933315    0.1904490084    0.0690053687
C        0.3210145324   -0.4138823971   -0.8054863684
C        2.8307553027   -2.2863562141   -0.6144341882
C        2.9185434334   -2.3104279414    0.8892968131
C        2.5132882142   -1.0284549068    0.1635738654
C       -0.8948919232    0.4402907953   -0.4912047931
C        5.6511829755   -0.6547066799    0.9376882823
N        2.9122388133    1.3138114927   -0.4652131111
N        4.7229052753    0.3082622557    0.3576617118
N        1.1192272835   -0.6847090525    0.3006483512
O        0.5549392096   -0.8404566018   -1.9282372457
H        3.8567412284    3.1968527310   -0.8946782415
H        6.1130335425    1.9435563008    0.1274277108
H        3.7544204792   -2.2729092762   -1.1849158766
H        2.0000124221   -2.7737793285   -1.1077853232
H        2.1125993904   -2.7975135202    1.4282142842
H        3.8867295144   -2.3889810391    1.3641207734
H       -1.3111761912    0.2301745692    0.4993329254
H       -1.6577017012    0.2754292094   -1.2527921722
H       -0.5899826547    1.4922172369   -0.5203618902
H        5.6811124011   -1.5787160066    0.3554585204
H        5.3893029410   -0.8850359857    1.9736481625
H        6.6500917766   -0.2166718719    0.9260054459
H        0.9270634400   -0.0997131132    1.1061354128
26   
Generated by ForceBalance from scan.xyz: Frame 11 of 24
C        3.8692805960    2.2840857802   -0.2308004956
C        5.0439331377    1.6309202119    0.0475761239
C        3.3276493624    0.2231277361    0.1560957213
C        0.3646316026   -0.3827251115   -0.8721507480
C        2.8174512955   -2.2963195269   -0.4369303997
C        2.8563867316   -2.2251298267    1.0681025463
C        2.4657253251   -0.9962592172    0.2500465202
C       -0.8833158482    0.4545381611   -0.6577194644
C        5.6751504496   -0.7044716068    0.6769405595
N        2.8137715627    1.4027442331   -0.1699795160
N        4.6995512444    0.3071823536    0.2889917672
N        1.0657508573   -0.6614946237    0.2965639461
O        0.7060869672   -0.7917020378   -1.9740330171
H        3.7236560229    3.3275675781   -0.4784189295
H        6.0715709000    1.9631397710    0.0972298654
H        3.7501523968   -2.3225252769   -0.9906063474
H        1.9983617921   -2.8164968772   -0.9166718960
H        2.0441843292   -2.6938201705    1.6140605586
H        3.8106871340   -2.2396260432    1.5794864936
H       -1.3831567676    0.2262149441    0.2890277354
H       -1.5730184901    0.2930805115   -1.4867843883
H       -0.5876937102    1.5093675724   -0.6448373119
H        5.5021569266   -1.6436589470    0.1508580067
H        5.6560478425   -0.8852226106    1.7561285597
H        6.6694370696   -0.3468327713    0.4044435834
H        0.8220631924   -0.0607243308    1.0765638643
26   
Generated by ForceBalance from scan.xyz: Frame 12 of 24
C        4.0761558194    2.2315434466    0.0216023916
C        5.2824588555    1.5794229659    0.0649211224
C        3.6103090771    0.1319576723    0.2737835166
C        0.7375781053   -0.5878759799   -0.8439843973
C        3.1853816236   -2.4551934962   -0.1317390904
C        3.1694781931   -2.2323326877    1.3590258996
C        2.7785319571   -1.1039556533    0.4057434802
C       -0.5599686190    0.1917647594   -0.7358051401
C        6.0042966756   -0.8089300406    0.1538358921
N        3.0454834705    1.3260886742    0.1460056547
N        4.9862301695    0.2322043810    0.2334221285
N        1.3691327252   -0.8117036425    0.3742118760
O        1.1785622812   -0.9980017283   -1.9103556987
H        3.8893667526    3.2918359490   -0.0889101605
H        6.3042223192    1.9262202717   -0.0036218038
H        4.1342664021   -2.5308306858   -0.6486478308
H        2.3887113652   -3.0393461339   -0.5753325852
H        2.3563876676   -2.6700353048    1.9288242300
H        4.1058487294   -2.1469828247    1.8999543067
H       -1.1103791742   -0.0390453884    0.1816010684
H       -1.1836460212   -0.0221738392   -1.6044054173
H       -0.3175020301    1.2601807319   -0.7305441258
H        6.0970424909   -1.1929484713   -0.8670235521
H        5.7808892483   -1.6347989259    0.8274841081
H        6.9629413619   -0.3816722874    0.4541091679
H        1.0745217173   -0.1807276671    1.1120369270
26   
Generated by ForceBalance from scan.xyz: Frame 13 of 24
C        4.1159260428    2.2573656649    0.2948753265
C        5.3058578189    1.5945725784    0.1252799877
C        3.6354388355    0.1467643411    0.3321099188
C        0.8373558309   -0.5976356548   -0.8866923150
C        3.2133510358   -2.4674369005    0.0237381764
C        3.1751229876   -2.1581836444    1.4986215856
C        2.8030407051   -1.0866361823    0.4773036943
C       -0.4850963178    0.1470042117   -0.8652064112
C        5.9839484388   -0.8077290946   -0.0815585108
N        3.0862101813    1.3518753477    0.4249520020
N        4.9984699065    0.2400435403    0.1552767722
N        1.3952840440   -0.8024720280    0.3685912225
O        1.3592874506   -0.9946997432   -1.9217445720
H        3.9414047488    3.3248860901    0.3304372221
H        6.3205333588    1.9386156344   -0.0188167351
H        4.1666193526   -2.5955562085   -0.4709752401
H        2.4136276748   -3.0664976765   -0.3940656127
H        2.3621765095   -2.5669118205    2.0901721124
H        4.1111306990   -2.0300258334    2.0339912424
H       -1.0896851996   -0.1035699880    0.0118547766
H       -1.0414625432   -0.0800341265   -1.7751953732
H       -0.2760238509    1.2223296642   -0.8404870771
H        5.8836578136   -1.2241601457   -1.0879524836
H        5.8939210957   -1.6095362011    0.6532184913
H        6.9797926225   -0.3727806533    0.0164277496
H        1.0577033875   -0.1627728026    1.0804809912
26   
Generated by ForceBalance from scan.xyz: Frame 14 of 24
C        4.1162677059    2.2112524562    0.5707950142
C        5.2441437472    1.5549580231    0.1412782943
C        3.5790032462    0.1194532250    0.4372851917
C        0.8806290843   -0.6111178465   -0.9624033036
C        3.1346888535   -2.5151663851    0.2252684634
C        2.9952940113   -2.1078333472    1.6692772734
C        2.7238782390   -1.1007770617    0.5548616164
C       -0.4548673727    0.1030427742   -1.0664762161
C        5.7825676919   -0.8175603195   -0.4716450988
N        3.0884876056    1.3135097083    0.7501853980
N        4.8968458346    0.2134153378    0.0550515428
N        1.3289540407   -0.8052552979    0.3346018080
O        1.5065450640   -0.9930987340   -1.9457451091
H        3.9861003823    3.2696118062    0.7562886769
H        6.2353544677    1.8984527776   -0.1194212839
H        4.1201592577   -2.7117472849   -0.1718406950
H        2.3510654805   -3.1218445847   -0.2124762127
H        2.1375643420   -2.4632365368    2.2316245747
H        3.9000830684   -1.9565777857    2.2506092918
H       -1.1141463906   -0.1174053630   -0.2216539146
H       -0.9422052154   -0.1803383092   -2.0001678838
H       -0.2714197676    1.1831955275   -1.0849389688
H        5.3548043154   -1.2716346623   -1.3682257528
H        5.9812590607   -1.5919732822    0.2743008030
H        6.7321034535   -0.3514087236   -0.7378794980
H        0.9362339293   -0.1680607413    1.0201768270
26   
Generated by ForceBalance from scan.xyz: Frame 15 of 24
C        4.2711397477    2.1407702603    0.8893608805
C        5.2518134746    1.5348512180    0.1370892392
C        3.6836592536    0.0721951895    0.6910870589
C        1.1747137516   -0.5650721978   -0.9969888623
C        3.2680707634   -2.5485451028    0.4996122197
C        2.9039203837   -2.0970677967    1.8892013666
C        2.8018312605   -1.1299164790    0.7142368487
C       -0.1667202831    0.0899995507   -1.2681984885
C        5.4782335277   -0.7355406786   -0.9253333434
N        3.2912290570    1.2299028062    1.2103812974
N        4.8629776282    0.2128022916   -0.0020152965
N        1.4393119196   -0.8351341501    0.3314126964
O        1.9703795473   -0.8401467845   -1.8928682880
H        4.2159786389    3.1727912909    1.2113931843
H        6.1626392348    1.9068166900   -0.3107737774
H        4.3125669407   -2.7320083557    0.2828810112
H        2.5758205100   -3.1891656466   -0.0347565412
H        1.9710613443   -2.4456693421    2.3212944535
H        3.7072443338   -1.9205124310    2.5969333546
H       -0.9194875569   -0.1647770816   -0.5166013097
H       -0.5171714238   -0.2074470838   -2.2575679164
H       -0.0317300244    1.1773208479   -1.2659931592
H        4.7028287551   -1.2115307227   -1.5277538961
H        6.0610350970   -1.4945934797   -0.3943820500
H        6.1490384651   -0.1865001573   -1.5878876124
H        0.9207482205   -0.2893809505    1.0115600685
26   
Generated by ForceBalance from scan.xyz: Frame 16 of 24
C        4.5365180444    2.0095156790    1.1391714619
C        5.3396719646    1.4365042758    0.1764565260
C        3.7763099017    0.0130335025    0.8315156748
C        1.2556584647   -0.6571909119   -0.9514217113
C        3.2939758773   -2.5727734718    0.6940716806
C        2.8681099654   -2.0777919054    2.0517051515
C        2.8378655683   -1.1425976184    0.8533177090
C       -0.0860342317   -0.0368709949   -1.2970879066
C        5.2892157155   -0.7573588050   -1.0673624288
N        3.5595577324    1.1235948882    1.5280657189
N        4.8383094020    0.1650380082   -0.0288837454
N        1.5046042333   -0.8235631129    0.3913159244
O        2.0581779810   -0.9992994661   -1.8197219347
H        4.6089367053    3.0013249146    1.5670473362
H        6.1970276804    1.8033153468   -0.3704739549
H        4.3491033263   -2.7561584858    0.5278202008
H        2.6267244110   -3.2280733802    0.1457891949
H        1.9086373340   -2.4065620453    2.4389933880
H        3.6314475498   -1.8896956867    2.7990177693
H       -0.7814680986   -0.0101183775   -0.4537208419
H       -0.5336313633   -0.5982761812   -2.1199219036
H        0.0834233623    0.9866752026   -1.6462548459
H        4.4221588306   -1.2334453235   -1.5265689735
H        5.9676431249   -1.5136878634   -0.6594611024
H        5.8217813322   -0.1867352177   -1.8302772642
H        0.9463582759   -0.2760349689    1.0366905149
26   
Generated by ForceBalance from scan.xyz: Frame 17 of 24
C        4.6365795518    2.0277043075    1.2972719279
C        5.3032018636    1.5201309003    0.2021430475
C        3.7074085797    0.1320787744    0.8519110507
C        1.1779920454   -0.7027236346   -1.0216094414
C        3.2102390252   -2.4357717531    0.7844714215
C        2.7237299953   -1.8896795627    2.1026443486
C        2.7428005819   -1.0012691211    0.8736745291
C       -0.1729224651   -0.1385746920   -1.4269210285
C        5.0729572896   -0.5782852977   -1.1802064448
N        3.6438720172    1.1608078055    1.6903518956
N        4.6973522652    0.3127349179   -0.0855929563
N        1.4376089804   -0.6999032853    0.3254909570
O        1.9701918377   -1.1431125817   -1.8554363074
H        4.8169783618    2.9599470727    1.8172571975
H        6.1313896449    1.8929513265   -0.3844683422
H        4.2740742141   -2.6094715792    0.6639641870
H        2.5711919787   -3.1174807213    0.2350062780
H        1.7493244600   -2.2110836699    2.4575615898
H        3.4495453849   -1.6647178685    2.8762943015
H       -0.8449442397    0.0375305928   -0.5825156074
H       -0.6460770466   -0.8298007445   -2.1278981779
H       -0.0117091259    0.8073846268   -1.9530558164
H        4.1882794350   -1.1029274889   -1.5403562304
H        5.8343817457   -1.2953097396   -0.8546474673
H        5.4809605937    0.0212586647   -1.9966453218
H        0.8365702254   -0.1390039762    0.9178801712
26   
Generated by ForceBalance from scan.xyz: Frame 18 of 24
C        4.8026178527    1.9295110489    1.5124331371
C        5.3325882214    1.5452837573    0.2992826724
C        3.7022482679    0.1758595138    0.9030170339
C        1.1609811216   -0.8247607145   -1.0817472588
C        3.1661410177   -2.3728948414    0.8391126827
C        2.6145417299   -1.7996973425    2.1197399408
C        2.7069691658   -0.9315314666    0.8812308591
C       -0.1930198138   -0.3099089699   -1.5421265180
C        4.9011027196   -0.3692703576   -1.2815329181
N        3.7921602292    1.0710476174    1.8803561783
N        4.6225053434    0.4263292751   -0.0888759280
N        1.4449449506   -0.6229195467    0.2426069478
O        1.9250143832   -1.3994630394   -1.8591118597
H        5.0913607374    2.7676559356    2.1338274263
H        6.1304150384    1.9493150536   -0.3086497350
H        4.2352735753   -2.5465875289    0.7727247981
H        2.5544651805   -3.0607976306    0.2672088205
H        1.6188868222   -2.1087974547    2.4227625610
H        3.2960235594   -1.5624754427    2.9288296394
H       -0.7916247621    0.1372593908   -0.7437705822
H       -0.7496973487   -1.1401157995   -1.9843940805
H       -0.0337268950    0.4339334481   -2.3277278911
H        4.0288688908   -0.9704165303   -1.5358961573
H        5.7667349542   -1.0191798310   -1.1129481539
H        5.1187508966    0.3002242476   -2.1173782080
H        0.8205303254   -0.0285673134    0.7741030766
26   
Generated by ForceBalance from scan.xyz: Frame 19 of 24
C        5.0828233132    1.6872655078    1.7129757311
C        5.4553714726    1.4399251458    0.4095650007
C        3.7973700615    0.1012846736    1.0115018855
C        1.2326620462   -1.0095842433   -1.0591164118
C        3.1330344663   -2.4124766460    1.0055074955
C        2.5253506293   -1.7568308622    2.2184337373
C        2.7425846248   -0.9486575394    0.9543532884
C       -0.0841484301   -0.4731254768   -1.5984164302
C        4.6977209481   -0.1879303640   -1.3570562446
N        4.0533851691    0.8497564272    2.0783962361
N        4.6334827710    0.4223577065   -0.0333808132
N        1.5524802258   -0.5988380667    0.2080507901
O        1.9344934884   -1.7690909355   -1.7287009718
H        5.4966648049    2.4127679685    2.4016905318
H        6.2125993592    1.8756434973   -0.2278757396
H        4.1967220148   -2.6281516226    1.0171314821
H        2.5325290000   -3.0992667982    0.4213880849
H        1.4961622620   -2.0038765626    2.4600164260
H        3.1594481246   -1.5103834811    3.0621642196
H       -0.5982030807    0.2107660555   -0.9172712578
H       -0.7417806808   -1.3192626349   -1.8155854533
H        0.1100392985    0.0413782017   -2.5431559378
H        3.9986764907   -1.0209798531   -1.4171259781
H        5.7126272463   -0.5483734196   -1.5493750417
H        4.4279712684    0.5434070670   -2.1252896422
H        0.9444367178    0.0794208950    0.6501850317
26   
Generated by ForceBalance from scan.xyz: Frame 20 of 24
C        5.3120208735    1.5675561452    1.8205718353
C        5.5466732274    1.4621748267    0.4671724101
C        3.8760795891    0.1395040432    1.0723114879
C        1.3598528603   -1.0736693878   -1.0765861797
C        3.1316097155   -2.3446709321    1.1521616037
C        2.4601905200   -1.6088205792    2.2812875981
C        2.7876074167   -0.8741069672    0.9950231497
C        0.0724700705   -0.5577802287   -1.7014959663
C        4.5113886669    0.1031942141   -1.3902778549
N        4.2734479067    0.7415050114    2.1873732488
N        4.6327414363    0.5396068776   -0.0046619118
N        1.6692129255   -0.5298153198    0.1436406516
O        2.0490532709   -1.9222895079   -1.6428147985
H        5.8295407234    2.1844398884    2.5440427114
H        6.2612022347    1.9398955442   -0.1889916020
H        4.1865081896   -2.5800399451    1.2500944172
H        2.5561293734   -3.0478532521    0.5626435452
H        1.4090242835   -1.8144578565    2.4588718902
H        3.0414211004   -1.3308192732    3.1526654090
H       -0.3979075701    0.2569645464   -1.1437116365
H       -0.6349717698   -1.3885272792   -1.7771775538
H        0.2891207965   -0.2192216478   -2.7176832009
H        4.0772809185   -0.8955118541   -1.4329208267
H        5.5030324606    0.0846743526   -1.8480876581
H        3.8695563184    0.7842844950   -1.9592029005
H        1.0471929162    0.1810745902    0.5082662639
26   
Generated by ForceBalance from scan.xyz: Frame 21 of 24
C        5.5064276655    1.3811712638    1.7987495600
C        5.5957537591    1.4230796639    0.4256458325
C        3.9021841975    0.1403785347    1.0550387378
C        1.4183044129   -1.1457353787   -1.1050142137
C        3.0681573767   -2.3001449051    1.2633498460
C        2.3745816778   -1.4761737862    2.3139550860
C        2.7743563642   -0.8319853088    0.9983218327
C        0.1421074988   -0.6800666621   -1.7895719375
C        4.3183144432    0.3256159487   -1.4516221853
N        4.4540885029    0.5800447159    2.1802132088
N        4.5751158444    0.6175177660   -0.0461818007
N        1.7013706678   -0.5174733828    0.0814199617
O        2.1267567061   -2.0213885376   -1.6001756791
H        6.1340591947    1.8789096942    2.5267631879
H        6.2694752291    1.9357912262   -0.2468580171
H        4.1117900483   -2.5520969812    1.4199007177
H        2.4980432546   -3.0242224563    0.6940435655
H        1.3108167424   -1.6390210016    2.4587545929
H        2.9322446461   -1.1601076726    3.1876934074
H       -0.3421147085    0.1692163687   -1.2990979749
H       -0.5613016053   -1.5171476173   -1.8209816458
H        0.3775194280   -0.4122812609   -2.8225431689
H        4.0323207494   -0.7192233047   -1.5760231148
H        5.2299902363    0.5162563498   -2.0209067326
H        3.5167997916    0.9594591744   -1.8447114189
H        1.0545857412    0.1963484006    0.3934411839
26   
Generated by ForceBalance from scan.xyz: Frame 22 of 24
C        5.6941543334    1.1076161188    1.7737975310
C        5.6481181093    1.3316518432    0.4176507670
C        3.9308378673    0.0836991217    1.0555735188
C        1.4908456895   -1.2197470000   -1.1144986637
C        2.9736802742   -2.2871496515    1.3954010238
C        2.2839562006   -1.3696973835    2.3662337730
C        2.7503610766   -0.8276892171    1.0246566807
C        0.2239633595   -0.8203404038   -1.8554134204
C        4.1472352974    0.5616530000   -1.4482095705
N        4.6274718018    0.3289143830    2.1596539627
N        4.5233279478    0.6658655676   -0.0418781523
N        1.7152757195   -0.5434746111    0.0588334120
O        2.2493853371   -2.0799609490   -1.5572762787
H        6.4258163986    1.4628410023    2.4880241824
H        6.2859381002    1.8912794870   -0.2521799344
H        4.0009843533   -2.5660120026    1.6029817513
H        2.3912585269   -3.0228354093    0.8535180925
H        1.2101447923   -1.4778495469    2.4885142162
H        2.8340953621   -1.0231727784    3.2332920867
H       -0.3112495181    0.0190368568   -1.4022229885
H       -0.4441337581   -1.6855566524   -1.8935618592
H        0.4865991963   -0.5651382973   -2.8850983939
H        3.9643129799   -0.4791051345   -1.7184169142
H        4.9704930435    0.9456467604   -2.0527616428
H        3.2509509614    1.1512352264   -1.6613689136
H        1.0273805505    0.1458398794    0.3356146687
26   
Generated by ForceBalance from scan.xyz: Frame 23 of 24
C        5.8559713153    0.8838090835    1.6550326541
C        5.6804015365    1.2842212378    0.3524115404
C        3.9640368077    0.0498685557    1.0201690481
C        1.5969941400   -1.2778198947   -1.1216379017
C        2.8605891749   -2.2029577390    1.5755627520
C        2.2004430211   -1.1586583785    2.4303944522
C        2.7231401747   -0.7800624457    1.0514678091
C        0.3596526821   -0.9649308699   -1.9484836848
C        3.9597021390    0.8510311352   -1.4201431390
N        4.7883934109    0.1162531436    2.0593533467
N        4.4683975496    0.7444868867   -0.0555312100
N        1.7192623803   -0.5583356158    0.0416264334
O        2.4269837213   -2.1053355735   -1.4889970625
H        6.6806886426    1.1053018585    2.3201481926
H        6.2792483292    1.8900056627   -0.3129403180
H        3.8673578314   -2.5075987624    1.8375741494
H        2.2486287833   -2.9570134265    1.0939879113
H        1.1202747682   -1.1982972495    2.5414065421
H        2.7569910029   -0.7586299623    3.2702280751
H       -0.2650981292   -0.1697471543   -1.5315567207
H       -0.2391134694   -1.8757747544   -2.0368465916
H        0.6739320348   -0.6824082491   -2.9566333610
H        3.8450667266   -0.1385786132   -1.8651825782
H        4.6815364136    1.4207610272   -2.0073194834
H        3.0017859653    1.3757245190   -1.4441697433
H        0.9883737020    0.1054975999    0.2635639022
26   
Generated by ForceBalance from scan.xyz: Frame 24 of 24
C        6.0118252027    0.6119944229    1.4885904800
C        5.7270220460    1.2043887859    0.2826792413
C        4.0201836093   -0.0403237848    0.9557993545
C        1.7423166378   -1.3318727111   -1.1602396070
C        2.7515146613   -2.1240880083    1.7313834441
C        2.1433294396   -0.9535106852    2.4512150166
C        2.7176442376   -0.7644711450    1.0517483523
C        0.5514285648   -1.0911324881   -2.0748091886
C        3.8043367984    1.1353923285   -1.3213251763
N        4.9482746052   -0.1591119561    1.8972497942
N        4.4460787264    0.7873067307   -0.0575006162
N        1.7473041257   -0.5987843287    0.0014340538
O        2.6398297652   -2.1156758456   -1.4540229979
H        6.9138580203    0.6951818040    2.0810080421
H        6.2929246125    1.8640893144   -0.3597188028
H        3.7300198208   -2.4607542575    2.0526307455
H        2.0956908253   -2.8808505843    1.3154347166
H        1.0612213244   -0.9129281857    2.5473439980
H        2.7123961035   -0.5030304703    3.2568980324
H       -0.1434512432   -0.3299824633   -1.7081884943
H        0.0110934020   -2.0338793585   -2.1977610621
H        0.9189409488   -0.7950847965   -3.0608756313
H        3.6860514670    0.2513700819   -1.9509689645
H        4.4436166881    1.8521096097   -1.8393094107
H        2.8308772780    1.6001399015   -1.1544899084
H        0.9772719496    0.0343438731    0.1720041419
