26   

C        0.3833039654   -0.4961922039   -0.3399102337
C        7.4795932384   -0.2461205888    4.7883798430
C        1.5796904347    0.1762214901   -0.0742128542
C       -0.1360160755   -1.3877801472    0.6027434996
C        6.9671840490   -0.6875822833    3.5650174418
C        6.6066199989    0.1751776982    5.7951812682
C        2.2544508782   -0.0445449868    1.1325678036
C        0.5399918643   -1.6030474612    1.8093929545
C        5.5836937953   -0.7062928729    3.3506197052
C        5.2240148834    0.1516908030    5.5779178916
C        1.7419217659   -0.9349446795    2.0873292042
C        4.6975707677   -0.2883288725    4.3541982531
C        2.4376097912   -1.1515483669    3.3572829463
C        3.2500796820   -0.3257621338    4.1367681764
H       -0.1412099266   -0.3255152676   -1.2732790011
H        8.5505397104   -0.2321590354    4.9566205494
H        1.9841276363    0.8712042433   -0.8012022989
H       -1.0637279138   -1.9110950521    0.4009160048
H        7.6406755642   -1.0184607436    2.7827033386
H        6.9997196772    0.5179707429    6.7455530807
H        3.1791355317    0.4840987212    1.3342572367
H        0.1262926393   -2.2926854437    2.5358896045
H        5.1929643314   -1.0546436397    2.4013226770
H        4.5553878986    0.4757391875    6.3668876443
H        2.3066479015   -2.1434001299    3.7732226056
H        2.6990363592    0.4356826194    4.6757302139
26   

C        0.6188708347   -0.5015164461   -0.3404999051
C        7.3975165559   -0.1895054956    4.5746701093
C        1.7690882913    0.1881653811    0.0528603803
C        0.0251729755   -1.4158944969    0.5336123333
C        6.7884945095   -0.6964065056    3.4233484853
C        6.6082199818    0.2577201249    5.6375130070
C        2.3232883692   -0.0374936607    1.3185694277
C        0.5818236619   -1.6381900987    1.7985294906
C        5.3923793557   -0.7551583581    3.3367902769
C        5.2127108166    0.1966361254    5.5474699924
C        1.7370586981   -0.9534901319    2.2057626523
C        4.5882051539   -0.3088178810    4.3969351591
C        2.3031591079   -1.1803296901    3.5392687423
C        3.1259291432   -0.3847065777    4.3186123963
H        0.1871561631   -0.3260668815   -1.3194027725
H        8.4785600571   -0.1456018575    4.6441479340
H        2.2308846358    0.9011335467   -0.6205783049
H       -0.8682577014   -1.9515215725    0.2334189034
H        7.3969234486   -1.0478703478    2.5978875372
H        7.0764205438    0.6497335762    6.5332504327
H        3.2107832485    0.5088609414    1.6166316145
H        0.1097525018   -2.3460898200    2.4697126225
H        4.9305452741   -1.1577490524    2.4425737808
H        4.6110418472    0.5418456151    6.3801078948
H        2.0528612929   -2.1338162806    3.9888981136
H        2.5945402008    0.3047258435    4.9637954185
26   

C        0.8385566830   -0.4905490499   -0.3317119805
C        7.3150127228   -0.1537944989    4.3740006709
C        1.9048634986    0.2505750897    0.1844740250
C        0.2188669734   -1.4590694677    0.4619497124
C        6.6349296084   -0.7647947336    3.3171717580
C        6.5960393587    0.3626715542    5.4548749000
C        2.3487896580    0.0231323851    1.4925575021
C        0.6668150767   -1.6852763883    1.7685993605
C        5.2384111828   -0.8593346664    3.3431982765
C        5.1996893833    0.2683145414    5.4764616984
C        1.7372670033   -0.9493023998    2.3005710355
C        4.5026497956   -0.3418679163    4.4217904282
C        2.1831580841   -1.1832362847    3.6795195389
C        3.0394918692   -0.4517754391    4.4675231481
H        0.4915189157   -0.3129011945   -1.3433455896
H        8.3967250940   -0.0831159912    4.3567207996
H        2.3869849792    1.0051756543   -0.4264517768
H       -0.6110312456   -2.0339099308    0.0669175604
H        7.1885683483   -1.1696256838    2.4777134761
H        7.1196662297    0.8343187543    6.2786384706
H        3.1710615060    0.6117978084    1.8829092687
H        0.1740060089   -2.4363334571    2.3747526810
H        4.7247518152   -1.3440091807    2.5208364207
H        4.6549101439    0.6689948873    6.3232444710
H        1.7952869707   -2.0787861623    4.1502390165
H        2.5496040169    0.1470586151    5.2260995438
26   

C        1.0328928246   -0.4710536643   -0.3081002488
C        7.2298948725   -0.1366153197    4.1972982768
C        2.0003315269    0.3252936365    0.3101970155
C        0.4133869975   -1.4945832217    0.4131417127
C        6.5034134239   -0.8516184109    3.2415811826
C        6.5648308320    0.4529744209    5.2751037529
C        2.3446431150    0.0990452558    1.6481111757
C        0.7635486552   -1.7210736691    1.7492401866
C        5.1148194682   -0.9781928398    3.3662323425
C        5.1757917883    0.3284681715    5.3940013626
C        1.7331473021   -0.9291370042    2.3847261861
C        4.4319337776   -0.3872667625    4.4424104714
C        2.0722477920   -1.1659128237    3.7954234415
C        2.9765767456   -0.5276293742    4.5951040238
H        0.7622566557   -0.2938920701   -1.3428691298
H        8.3058560581   -0.0416882587    4.1041719710
H        2.4831932491    1.1215644670   -0.2446549509
H       -0.3408158197   -2.1122179737   -0.0611053363
H        7.0148008724   -1.3120210258    2.4039803191
H        7.1248092702    1.0050410515    6.0213284401
H        3.0915368010    0.7301771579    2.1160049027
H        0.2718477441   -2.5162614322    2.2971496917
H        4.5661439688   -1.5424021805    2.6207613156
H        4.6740523576    0.7880641505    6.2374042992
H        1.5340857216   -1.9731595294    4.2780454938
H        2.5479039039   -0.0470466948    5.4665796197
26   

C        1.2068016816   -0.4515407279   -0.2812607092
C        7.1495648820   -0.1240912640    4.0397071682
C        2.0738104583    0.3953594557    0.4141216986
C        0.6005089348   -1.5203114494    0.3834830992
C        6.3996643538   -0.9324683073    3.1813944766
C        6.5209116443    0.5277708448    5.1034876208
C        2.3297733175    0.1750332020    1.7726436457
C        0.8642031529   -1.7415918690    1.7401735992
C        5.0245680010   -1.0909578988    3.3902809141
C        5.1445792541    0.3723977160    5.3051303308
C        1.7308564102   -0.8981437000    2.4529201201
C        4.3782722717   -0.4382306034    4.4529855975
C        1.9778081076   -1.1317102303    3.8850696819
C        2.9363932139   -0.6092100946    4.6942701585
H        1.0040169490   -0.2789257281   -1.3321816952
H        8.2154548583   -0.0045332183    3.8818013464
H        2.5476350307    1.2256223687   -0.0969287849
H       -0.0762445478   -2.1773555900   -0.1508089305
H        6.8821695791   -1.4398721785    2.3539003164
H        7.0993902816    1.1524438964    5.7745443714
H        3.0004749927    0.8432298440    2.3006851983
H        0.3852901666   -2.5729419905    2.2439448024
H        4.4562156718   -1.7252623744    2.7196075536
H        4.6702285362    0.8819545118    6.1355721237
H        1.2931177016   -1.8162648955    4.3719506736
H        2.5824949692   -0.2754343795    5.6626805083
26   

C        1.3461346179   -0.4384852713   -0.2495896094
C        7.0740490281   -0.1158234700    3.9182127868
C        2.1328467246    0.4459875860    0.4931656893
C        0.7477973024   -1.5319680682    0.3817050018
C        6.3168453153   -0.9902653327    3.1340654282
C        6.4680626067    0.5706321592    4.9735827745
C        2.3157801336    0.2385409413    1.8654033434
C        0.9398474382   -1.7404158119    1.7524308017
C        4.9575528338   -1.1803351903    3.4092627036
C        5.1067385488    0.3839565901    5.2403705469
C        1.7244372075   -0.8588764594    2.5116147502
C        4.3346705475   -0.4932925287    4.4635820812
C        1.8974717575   -1.0806789140    3.9581562965
C        2.9080072388   -0.6951200967    4.7726542423
H        1.1997524773   -0.2761542221   -1.3114494474
H        8.1279750041    0.0285261526    3.7090977834
H        2.6014757472    1.2946249688    0.0082161878
H        0.1331773064   -2.2182596220   -0.1895914184
H        6.7811045672   -1.5236116468    2.3124937273
H        7.0524827424    1.2466737147    5.5872227821
H        2.9258403872    0.9328401986    2.4319792838
H        0.4697852834   -2.5911988425    2.2315211759
H        4.3807829208   -1.8633338046    2.7960063061
H        4.6478443583    0.9207808715    6.0622913591
H        1.0887644585   -1.6131561465    4.4451971738
H        2.6302705472   -0.5297229664    5.8071852298
26   

C        1.4393340879   -0.4382097449   -0.2215058502
C        7.0156584785   -0.1044845699    3.8408911466
C        2.1859843054    0.4663676047    0.5384853695
C        0.8297832337   -1.5303691003    0.4016971040
C        6.2607337744   -1.0116300129    3.0922282273
C        6.4218182678    0.5809608167    4.9040262707
C        2.3175858853    0.2800529548    1.9195927436
C        0.9711127779   -1.7174945548    1.7816692297
C        4.9160754391   -1.2350760425    3.4107387761
C        5.0745966679    0.3607878378    5.2135928175
C        1.7150086333   -0.8157118196    2.5569122643
C        4.3061037898   -0.5490437492    4.4725014654
C        1.8378587037   -1.0165489958    4.0133602846
C        2.8927851185   -0.7840488366    4.8243794472
H        1.3329700677   -0.2926921898   -1.2905330482
H        8.0583396013    0.0662581371    3.5980542420
H        2.6638529605    1.3135069798    0.0600077163
H        0.2462860769   -2.2322515772   -0.1831123912
H        6.7150985201   -1.5437057185    2.2643440827
H        7.0045974581    1.2823953367    5.4900867273
H        2.8981001587    0.9870442131    2.5013988138
H        0.4942969972   -2.5671566905    2.2560909620
H        4.3382873286   -1.9410553829    2.8250070555
H        4.6230072043    0.8966595825    6.0401904843
H        0.9402795162   -1.3733735002    4.5052071262
H        2.6796396661   -0.8025412520    5.8869772318
26   

C        1.5728313785   -0.9307092619   -0.2463393398
C        6.8838789977    0.3878012437    3.8644226271
C        2.6635597198   -1.5469930440    0.3735516826
C        0.5696850491   -0.3483931199    0.5331938493
C        5.8028873694    1.0080924964    3.2316043122
C        6.6520387311   -0.6118403555    4.8131288689
C        2.7467281610   -1.5836656553    1.7704501864
C        0.6614139125   -0.3801434904    1.9295562285
C        4.4933091067    0.6310422625    3.5516466874
C        5.3410312496   -0.9913749721    5.1237314073
C        1.7490723865   -0.9973971806    2.5639639447
C        4.2476890361   -0.3753097701    4.4980020711
C        1.8227902458   -1.0366415978    4.0384166303
C        2.8700834146   -0.7758785342    4.8486826206
H        1.5050643923   -0.9048685918   -1.3280235212
H        7.8985643800    0.6813800607    3.6204399368
H        3.4464208650   -1.9971058114   -0.2259944063
H       -0.2800677668    0.1272245288    0.0569384495
H        5.9767431870    1.7814962114    2.4923136671
H        7.4871333233   -1.0929829877    5.3093448744
H        3.5959855010   -2.0626064580    2.2446312083
H       -0.1205892894    0.0737021906    2.5269615155
H        3.6595237243    1.1157114359    3.0562975962
H        5.1696333764   -1.7674030061    5.8604817793
H        0.9145576444   -1.3604728150    4.5335066570
H        2.6656305145   -0.8274324797    5.9118888877
26   

C        1.5457717449   -0.9758573945   -0.2497047154
C        6.8859790858    0.4252692168    3.9017863714
C        2.6288982386   -1.5909784934    0.3841681459
C        0.5563233180   -0.3532202936    0.5158391635
C        5.7948196489    1.0376764812    3.2791635505
C        6.6715021294   -0.6040714358    4.8222196313
C        2.7180497413   -1.5865769552    1.7811351007
C        0.6539233152   -0.3438224557    1.9121517281
C        4.4923135134    0.6233877432    3.5813796584
C        5.3677367134   -1.0209305846    5.1150212293
C        1.7339073855   -0.9599924314    2.5614257367
C        4.2634130491   -0.4129854050    4.4998263612
C        1.8115432713   -0.9581208593    4.0346693904
C        2.8948944021   -0.8509440591    4.8343568308
H        1.4732277057   -0.9823247992   -1.3313706249
H        7.8950592767    0.7481132091    3.6719249996
H        3.4011342554   -2.0725822081   -0.2046042887
H       -0.2877056287    0.1215454173    0.0286823615
H        5.9552334858    1.8343435512    2.5618542159
H        7.5146022615   -1.0791491322    5.3106795577
H        3.5614012638   -2.0667264957    2.2644009704
H       -0.1185626041    0.1411035538    2.4973604277
H        3.6518188004    1.1045113236    3.0941230851
H        5.2113913113   -1.8196286028    5.8305583943
H        0.8649679139   -1.0930376283    4.5452369779
H        2.7310805194   -1.0910820976    5.8785721025
26   

C        1.4641813190   -1.0142697442   -0.2837708110
C        6.9374415106    0.4534228183    3.9785083131
C        2.5749910252   -1.5904557611    0.3383258798
C        0.4839482719   -0.3872371219    0.4896776923
C        5.8558822722    1.0394790188    3.3154391486
C        6.7135081946   -0.5803460910    4.8914298994
C        2.7012281707   -1.5430058827    1.7316467980
C        0.6179751468   -0.3348318948    1.8819841047
C        4.5531870515    0.5946425445    3.5696758740
C        5.4101016269   -1.0277474873    5.1367681930
C        1.7261975095   -0.9118627249    2.5206768110
C        4.3141467351   -0.4465830274    4.4808867565
C        1.8400553175   -0.8673681310    3.9892302367
C        2.9466124208   -0.9145482240    4.7680329607
H        1.3628845372   -1.0546223207   -1.3623976304
H        7.9463646987    0.8003554399    3.7860587646
H        3.3397822194   -2.0760714106   -0.2568604560
H       -0.3815794036    0.0573049263    0.0117894584
H        6.0238579521    1.8401586191    2.6043335211
H        7.5490439777   -1.0350113255    5.4113263044
H        3.5658352261   -1.9958569663    2.2034671055
H       -0.1492105882    0.1530257185    2.4716778867
H        3.7216744828    1.0586645353    3.0515009521
H        5.2484558401   -1.8293401214    5.8478506596
H        0.8998579251   -0.8077964425    4.5251671666
H        2.8003200695   -1.3411039748    5.7536277520
26   

C        1.3353404698   -1.0518154879   -0.3281296317
C        7.0146685904    0.4737158994    4.0951118910
C        2.5027543674   -1.5521132120    0.2544157639
C        0.3594132080   -0.4573236393    0.4755401974
C        5.9659892825    1.0139537349    3.3461608458
C        6.7546085705   -0.5381976000    5.0225486819
C        2.6905237688   -1.4610539381    1.6386497607
C        0.5537340107   -0.3618414670    1.8583678336
C        4.6596648674    0.5449744602    3.5284496570
C        5.4482469589   -1.0093999319    5.1971240141
C        1.7200029053   -0.8619255243    2.4585782658
C        4.3839256918   -0.4750470931    4.4540162597
C        1.8966032722   -0.7745877339    3.9171624202
C        3.0129778578   -0.9659107416    4.6681191572
H        1.1866510714   -1.1262386455   -1.3994391471
H        8.0259900458    0.8395932771    3.9583133880
H        3.2636286327   -2.0136138749   -0.3645395844
H       -0.5498495688   -0.0717668457    0.0285960882
H        6.1622405890    1.7986979682    2.6245793207
H        7.5643112144   -0.9572551901    5.6090162945
H        3.5986981899   -1.8582492882    2.0775295682
H       -0.2125252378    0.0995675295    2.4701167333
H        3.8551306271    0.9770537558    2.9443322993
H        5.2604216456   -1.7930224811    5.9216557149
H        1.0051594578   -0.5265172898    4.4813071155
H        2.8654530690   -1.5650338648    5.5590501804
26   

C        1.1705971315   -1.1054256744   -0.3562461806
C        7.0866222598    0.4958545928    4.2538875278
C        2.4041527943   -1.5069926941    0.1628707219
C        0.2036480473   -0.5642600282    0.4944814786
C        6.0941626173    0.9789246495    3.3971101523
C        6.7689515411   -0.4793177395    5.2024206355
C        2.6678130070   -1.3694964633    1.5308386987
C        0.4724482501   -0.4237994313    1.8608967368
C        4.7863078972    0.4886998388    3.4916791297
C        5.4613645810   -0.9706815271    5.2909687516
C        1.7067090900   -0.8232035636    2.3977480255
C        4.4529880106   -0.4949113128    4.4377719916
C        1.9637533199   -0.6898890550    3.8390264198
C        3.0798227715   -1.0052612112    4.5598578193
H        0.9636584411   -1.2155393312   -1.4147495624
H        8.0988177996    0.8779841063    4.1845194920
H        3.1574449354   -1.9286008247   -0.4927671246
H       -0.7564067903   -0.2552724838    0.0969555703
H        6.3351576342    1.7364490865    2.6601294268
H        7.5346715965   -0.8540000369    5.8721149364
H        3.6266908594   -1.6926384150    1.9197264336
H       -0.2886500255   -0.0057943252    2.5092009015
H        4.0257524300    0.8788784750    2.8250302394
H        5.2289765521   -1.7243341925    6.0341403905
H        1.1532287453   -0.2702576102    4.4231062219
H        2.9235216834   -1.7514349110    5.3299129338
26   

C        0.9809277587   -1.1725710519   -0.3759346766
C        7.1560023771    0.5224900575    4.4418827082
C        2.2774815617   -1.4660034851    0.0548568874
C        0.0390165569   -0.6919723192    0.5371776955
C        6.2457263871    0.9463782604    3.4700518653
C        6.7594513653   -0.4102852793    5.4034568566
C        2.6295997369   -1.2796632681    1.3969407703
C        0.3952490085   -0.5048361970    1.8777862641
C        4.9412562325    0.4382618384    3.4618459570
C        5.4550614269   -0.9177803065    5.3908539269
C        1.6939252956   -0.7944049628    2.3251050306
C        4.5298448684   -0.5020856776    4.4204565529
C        2.0476176613   -0.6125260341    3.7387183635
C        3.1587492670   -1.0277267593    4.4319140340
H        0.7059694728   -1.3198158945   -1.4142574694
H        8.1654359551    0.9178963961    4.4514884203
H        3.0109722405   -1.8419020387   -0.6492633916
H       -0.9690132780   -0.4663922534    0.2082195703
H        6.5478455271    1.6721387965    2.7236683597
H        7.4611633401   -0.7393187542    6.1614546678
H        3.6363702633   -1.5200487962    1.7189044541
H       -0.3465988951   -0.1358763447    2.5762832271
H        4.2430963388    0.7828717418    2.7076228655
H        5.1594532764   -1.6372248825    6.1454305907
H        1.3350793193   -0.0493301143    4.3295907068
H        2.9935739634   -1.8874532403    5.0703639921
26   

C        0.7808891276   -1.2475594712   -0.3984114083
C        7.2293395588    0.5545269654    4.6409302395
C        2.1272591113   -1.4426593615   -0.0780679147
C       -0.1112047907   -0.8160323958    0.5867783652
C        6.4239238665    0.9324908798    3.5630406819
C        6.7388229890   -0.3441563320    5.5919332988
C        2.5789635669   -1.2060651629    1.2257948000
C        0.3441001610   -0.5813306042    1.8894328206
C        5.1304492615    0.4115669345    3.4379843899
C        5.4447751885   -0.8621654856    5.4638471592
C        1.6934085966   -0.7720619192    2.2244121727
C        4.6259597156   -0.4921036902    4.3859685320
C        2.1578759491   -0.5400479043    3.5956709670
C        3.2656144878   -1.0267294776    4.2692673555
H        0.4291233835   -1.4326485589   -1.4070803979
H        8.2303324071    0.9589092742    4.7404266464
H        2.8221149574   -1.7808628388   -0.8382607475
H       -1.1567673793   -0.6653668607    0.3432024972
H        6.7989971796    1.6322012655    2.8249183021
H        7.3593728776   -0.6384925756    6.4306913149
H        3.6235957767   -1.3683552763    1.4653952349
H       -0.3580176533   -0.2515938594    2.6462446794
H        4.5112918848    0.7176829123    2.6025561491
H        5.0734639914   -1.5545939590    6.2102588325
H        1.5455426770    0.1363450998    4.1800457074
H        3.0960898319   -1.9672395930    4.7798117491
26   

C        0.5719527531   -1.3506191639   -0.4057441078
C        7.2868508083    0.6066135923    4.8608833977
C        1.9481344561   -1.4925089821   -0.2056153714
C       -0.2412875419   -0.9173418953    0.6450341093
C        6.5921078478    0.9787319897    3.7063597604
C        6.7095089978   -0.2965034515    5.7576994311
C        2.5082547511   -1.2004369512    1.0439068786
C        0.3222668732   -0.6296488955    1.8936292309
C        5.3224193879    0.4469064185    3.4506271377
C        5.4385040132   -0.8232342390    5.4999322384
C        1.7020788707   -0.7673012048    2.1067256792
C        4.7316146768   -0.4582310334    4.3443728015
C        2.2851939880   -0.4799935910    3.4189424652
C        3.3957663806   -0.9998907843    4.0864675477
H        0.1363199041   -1.5775615176   -1.3722560148
H        8.2695673639    1.0184084242    5.0611727517
H        2.5819894961   -1.8315923079   -1.0169951955
H       -1.3090753881   -0.8062487888    0.4942753895
H        7.0348612555    1.6815711077    3.0098883911
H        7.2446619052   -0.5875520792    6.6544396821
H        3.5755387567   -1.3175040740    1.1935355081
H       -0.3177577578   -0.2991163145    2.7033556251
H        4.7871522317    0.7437169478    2.5558738926
H        4.9975317105   -1.5190053187    6.2041964516
H        1.7641116640    0.2862179146    3.9804693587
H        3.2349702172   -1.9964984497    4.4799611847
