32

C      1.92212   -1.05482   -0.14267
C      6.15527   -3.49140    3.00271
C      1.30513   -2.11722    0.52585
C      2.47305   -0.00137    0.59424
C      6.18389   -2.13733    3.35200
C      5.01632   -4.25337    3.28294
C      0.54683   -0.50148    6.21124
C      1.56553   -1.08787    6.96807
C      1.24162   -2.12557    1.92227
C      2.40808   -0.01236    1.99057
C      5.07943   -1.55002    3.97594
C      3.91333   -3.66340    3.90697
C      0.63170   -0.50321    4.81634
C      2.65972   -1.67059    6.32298
C      1.79212   -1.07392    2.66840
C      3.93359   -2.30657    4.25958
C      1.72601   -1.08566    4.16047
C      2.75321   -1.67693    4.92365
H      1.97406   -1.04839   -1.22846
H      7.01271   -3.94861    2.51544
H      0.87567   -2.94071   -0.03936
H      2.95570    0.82757    0.08244
H      7.06472   -1.53760    3.13643
H      4.98532   -5.30618    3.01343
H     -0.30867   -0.04547    6.70306
H      1.50930   -1.09195    8.05367
H      0.76572   -2.95373    2.44138
H      2.84028    0.80463    2.56286
H      5.10070   -0.49651    4.24326
H      3.02678   -4.25517    4.12059
H     -0.15645   -0.04921    4.22092
H      3.45589   -2.12857    6.90453
