27

C      2.75903   -1.01819    0.68264
C     -2.29915    0.44105    4.60219
C      3.87351   -0.83895    1.51008
C      1.53326   -1.40338    1.23631
C     -1.28724    1.22373    4.03694
C     -1.98847   -0.54412    5.54865
C      3.76272   -1.03435    2.88892
C      1.42242   -1.61906    2.61231
C      0.04485    1.02407    4.41066
C     -0.66218   -0.75601    5.92894
C      2.53795   -1.43520    3.43760
C      0.33427    0.03225    5.34831
N      2.37742   -1.65639    4.85030
O      2.12802   -0.73947    7.18255
O      2.82952    0.88833    5.34929
S      2.03988   -0.26301    5.79953
H      2.84643   -0.85858   -0.38884
H     -3.33352    0.60071    4.30920
H      4.82514   -0.53295    1.08387
H      0.66625   -1.54656    0.59690
H     -1.53230    1.98951    3.30638
H     -2.77888   -1.14362    5.99153
H      4.61320   -0.85899    3.54202
H      0.48332   -1.93327    3.05727
H      0.84880    1.61820    3.98900
H     -0.39765   -1.51057    6.66310
H      3.17978   -2.11126    5.28937
