28

C      5.82292    4.97751   -2.16312
C      6.29168    4.13862   -3.18831
C      4.88935    4.49031   -1.26021
C      5.78773    2.84350   -3.24681
C      4.44905    3.15930   -1.41594
C      0.80032   -0.54101   -0.34410
C      1.30325   -0.10543   -1.72781
C      1.91717   -0.44954    0.70599
C      1.92519    1.29897   -1.68366
C      2.53928    0.95467    0.74518
C      3.03863    1.36150   -0.63792
N      4.88079    2.35218   -2.38273
O      3.54666    2.71530   -0.50874
H      6.18557    5.99854   -2.07400
H      7.02123    4.48097   -3.91557
H      4.49446    5.09219   -0.44809
H      6.11901    2.15539   -4.02335
H      0.40479   -1.56262   -0.38750
H     -0.03319    0.10794   -0.04193
H      2.05526   -0.82302   -2.08335
H      0.48492   -0.12560   -2.45650
H      1.53237   -0.71150    1.69814
H      2.69712   -1.18613    0.46894
H      2.32726    1.57483   -2.66236
H      1.15904    2.03887   -1.41755
H      1.79130    1.68545    1.07824
H      3.36892    0.99450    1.45943
H      3.86427    0.71321   -0.94636
