25

C      1.86109   -0.98740    0.01931
C      0.39974    2.89139    5.78075
C      0.70260   -1.42197    0.67350
C      3.00829   -0.66386    0.75293
C      1.76793    2.62701    5.65018
C     -0.53994    1.87685    5.56472
C      0.68223   -1.52618    2.06665
C      2.99981   -0.76421    2.14646
C      2.20353    1.34833    5.29328
C     -0.11641    0.59426    5.20743
C      1.83169   -1.18778    2.78366
C      1.25178    0.35129    5.06975
O      0.74770   -2.24506    4.95487
O      3.19323   -1.44799    5.03894
S      1.80383   -1.29141    4.58101
H      1.87264   -0.90897   -1.06458
H      0.06571    3.88725    6.05964
H     -0.18136   -1.68642    0.09972
H      3.91048   -0.34102    0.24071
H      2.49530    3.41315    5.83308
H     -1.60057    2.08178    5.68140
H     -0.19809   -1.88197    2.59286
H      3.88494   -0.53956    2.73341
H      3.26046    1.11581    5.20799
H     -0.82679   -0.21265    5.05676
