28

C      6.48890    2.85595   -2.48422
C      7.04829    4.01652   -1.94285
C      5.42090    2.23802   -1.83591
C      6.49405    4.50356   -0.75668
C      4.94625    2.81562   -0.64087
C      0.65915   -0.33992   -0.56745
C      1.33907    0.27489   -1.79904
C      1.68458   -0.66984    0.52683
C      2.18237    1.50169   -1.41894
C      2.53067    0.55756    0.89564
C      3.20938    1.14323   -0.34087
N      5.47147    3.92607   -0.11626
O      3.93063    2.30801    0.10490
H      6.87623    2.43135   -3.40717
H      7.87902    4.52788   -2.41909
H      4.97922    1.34152   -2.25298
H      6.89067    5.40619   -0.29307
H      0.10452   -1.24176   -0.85141
H     -0.07694    0.37191   -0.17004
H      1.98347   -0.47928   -2.27231
H      0.59115    0.55807   -2.54805
H      1.17946   -1.05157    1.42102
H      2.34386   -1.47518    0.17424
H      2.67840    1.91705   -2.30201
H      1.53617    2.29173   -1.01686
H      1.89643    1.33364    1.34104
H      3.29349    0.30105    1.63802
H      3.92087    0.40169   -0.72881
