18

C      1.90157   -1.01951   -0.12488
C      2.93012   -1.62647    0.60318
C      0.81235   -0.45914    0.55138
C      2.86704   -1.67038    1.99914
C      0.75397   -0.49685    1.94743
C      1.78290   -1.10245    2.68012
C      2.41718    0.14341    4.78964
C      1.76459   -1.09662    4.19129
F      0.42902   -1.14526    4.65026
H      1.94511   -0.98977   -1.21054
H      3.77543   -2.07233    0.08525
H      0.00580    0.00612   -0.00972
H      3.66511   -2.15386    2.55986
H     -0.09606   -0.07170    2.47282
H      1.91044    1.04484    4.43255
H      2.36431    0.11188    5.88204
H      3.46740    0.19715    4.48713
H      2.24733   -2.00302    4.57323
