24   

C       -0.6241065581    1.2048144445   -0.0622428967
C        0.5635715259    0.6605188954    0.3739303750
C        1.5239331323    1.4391078584    1.2314323659
C       -1.5684435135    0.4592992285   -0.9556988097
C       -0.1017574091   -1.5095523005   -0.6683165100
C        3.6744357522    1.7727484389    2.3959149140
C        3.6125824785    0.4004123174    0.3206359385
N        0.8921958352   -0.6570094359   -0.0218197457
N       -0.8505285193   -0.6576920517   -1.5859627959
N        2.8803589700    1.0983052026    1.3729368532
O        1.1567470494    2.4617990752    1.8123676603
H       -0.8597356159    2.2283543647    0.2047899370
H       -2.4068143329    0.0808844923   -0.3617235104
H       -1.9633361149    1.1340544994   -1.7222456724
H        0.3948674160   -2.3104885882   -1.2248058593
H       -0.7703737486   -1.9505225843    0.0790069623
H        4.6150821902    1.2396718654    2.5663548136
H        3.1306695798    1.7949367185    3.3462786349
H        3.8966072777    2.7995502843    2.0883169202
H        4.6037561703    0.8471044670    0.1921443944
H        3.1048755536    0.4950474529   -0.6448185289
H        3.7346997431   -0.6573192827    0.5714365542
H        1.7498802041   -1.0800405030    0.3133326302
H       -1.4549550538   -1.2002708429   -2.1935580374
24   

C       -0.5790214892    1.1900096462   -0.1033614191
C        0.5506660577    0.6066449144    0.4227074343
C        1.4836639374    1.3522963927    1.3368038258
C       -1.4939364966    0.4579700625   -1.0378618354
C       -0.1426950188   -1.5650451688   -0.5889323399
C        3.6827661079    1.7534483443    2.3880114582
C        3.5584185547    0.4819051571    0.2446222155
N        0.8437611481   -0.7366878973    0.0991048189
N       -0.7875736988   -0.7113083121   -1.5818881454
N        2.8648485317    1.1026135950    1.3694537507
O        1.0593535571    2.2477287168    2.0704236607
H       -0.7864234594    2.2280964312    0.1280664572
H       -2.3879010385    0.1377021006   -0.4927254649
H       -1.8032135014    1.1233476916   -1.8505183625
H        0.3526043015   -2.4053791689   -1.0852525002
H       -0.8801545105   -1.9508248155    0.1233499092
H        4.6648120648    1.2749316057    2.4560485011
H        3.2059966710    1.6701834123    3.3703817245
H        3.8183246347    2.8122241819    2.1455817018
H        4.5044646712    0.9988715794    0.0547701028
H        2.9723670437    0.5593819449   -0.6769613637
H        3.7680301890   -0.5708774887    0.4551645358
H        1.6617503060   -1.1819676823    0.5001830859
H       -1.3750798085   -1.2474337014   -2.2114682968
24   

C       -0.5257504348    1.1836032192   -0.1389403452
C        0.5351287807    0.5561018168    0.4694374941
C        1.4516438287    1.2601362917    1.4344762790
C       -1.4159336805    0.4705818202   -1.1114313233
C       -0.2004400800   -1.6057692839   -0.5259393479
C        3.6857724899    1.7300280970    2.3845501033
C        3.4963424246    0.5655374311    0.1793335483
N        0.7783466581   -0.8100112868    0.2099143187
N       -0.7355061560   -0.7468405334   -1.5792165898
N        2.8440469163    1.1105626086    1.3666757158
O        0.9954407656    2.0015302817    2.3081198512
H       -0.6935733850    2.2355894717    0.0580765597
H       -2.3571632205    0.2091763502   -0.6167344734
H       -1.6400094365    1.1266528447   -1.9588535543
H        0.2840739058   -2.4812173412   -0.9694097090
H       -1.0018342244   -1.9377906743    0.1430492064
H        4.6887588515    1.2920083884    2.3712094702
H        3.2664421532    1.5632530234    3.3823188301
H        3.7652048719    2.8068948933    2.2056388350
H        4.3918707839    1.1484876101   -0.0580429591
H        2.8452007871    0.6221306926   -0.6989692250
H        3.7853515266   -0.4764423858    0.3450280489
H        1.5490760397   -1.2815441533    0.6711422348
H       -1.3077372611   -1.2707013696   -2.2327883440
24   

C       -0.3903446131    1.1821559254   -0.1064841575
C        0.5973904712    0.5102105026    0.5713560688
C        1.5252271129    1.1715821667    1.5594084122
C       -1.2752604400    0.4874731826   -1.0970647984
C       -0.2090090883   -1.6360644765   -0.3931248779
C        3.7979941865    1.7285512604    2.3720160661
C        3.5005719517    0.6729270157    0.1203581756
N        0.7736027556   -0.8744890383    0.3732151711
N       -0.6428161051   -0.7800425403   -1.4955013998
N        2.9129159509    1.1401199231    1.3730620113
O        1.0793556222    1.7413016975    2.5588715580
H       -0.5006380659    2.2485571948    0.0472109442
H       -2.2506148991    0.2935320822   -0.6387193513
H       -1.4244567588    1.1265116257   -1.9734881064
H        0.2482587371   -2.5485965410   -0.7881488943
H       -1.0603806246   -1.9055935124    0.2413206291
H        4.8000925459    1.2949584143    2.2958688706
H        3.4304060758    1.5271870886    3.3836092967
H        3.8659908319    2.8109705111    2.2255446160
H        4.3409478422    1.3146684137   -0.1624013230
H        2.7824221933    0.7142509491   -0.7048282550
H        3.8586829057   -0.3553029269    0.2271904448
H        1.4917534169   -1.3727482842    0.8886742675
H       -1.2115706045   -1.2917987257   -2.1616258444
24   

C       -0.3383310976    1.1954448825   -0.1802279521
C        0.5423535814    0.4744974475    0.5876943028
C        1.4425935155    1.0764774920    1.6407896329
C       -1.1809467124    0.5336208579   -1.2286140942
C       -0.2951716013   -1.6368583691   -0.4172810899
C        3.6966346077    1.7542663005    2.4350163659
C        3.3967820888    0.8613999942    0.1134142968
N        0.6595581958   -0.9197631946    0.4234904522
N       -0.5903685276   -0.7731673532   -1.5599798969
N        2.8166044283    1.2062609295    1.4083971951
O        0.9821644344    1.4307930642    2.7300846279
H       -0.3919459057    2.2696277634   -0.0549139986
H       -2.1981193967    0.4002015079   -0.8456421362
H       -1.2262814807    1.1649443667   -2.1219615541
H        0.1436848946   -2.5771342985   -0.7653597046
H       -1.2095454183   -1.8533262465    0.1458045839
H        4.6836274162    1.2850088193    2.3755061077
H        3.3064747655    1.5605178816    3.4393496616
H        3.8059260171    2.8346971346    2.3000634017
H        4.2077021343    1.5540881277   -0.1324936749
H        2.6618394921    0.9357289607   -0.6943203474
H        3.7945650446   -0.1577233227    0.1353092355
H        1.2867923820   -1.4489764274    1.0208219340
H       -1.1310393212   -1.2634262713   -2.2645717602
24   

C       -0.2045679245    1.2080856111   -0.2396962469
C        0.5522816298    0.4229041400    0.5941232054
C        1.4628698054    0.9444369718    1.6808367798
C       -1.0534990787    0.6019699215   -1.3163442703
C       -0.4134303557   -1.6234064964   -0.4205138082
C        3.6836433476    1.7563393420    2.4460623835
C        3.3399081892    1.0800340670    0.0567855705
N        0.5570680834   -0.9771255633    0.4585257479
N       -0.5718915624   -0.7612933181   -1.5920534754
N        2.7981166344    1.2529023919    1.4013554676
O        1.0346027847    1.0868141815    2.8307007552
H       -0.1558666732    2.2853159778   -0.1435279830
H       -2.0958142559    0.5712942840   -0.9818138453
H       -0.9976607727    1.2133388801   -2.2228213904
H       -0.0433695474   -2.6059885918   -0.7295133855
H       -1.3711312126   -1.7462153973    0.0969369718
H        4.2644762583    0.9345672138    2.8758145190
H        3.1207185717    2.2469499225    3.2465429093
H        4.3701563820    2.5010635664    2.0313152525
H        3.2136364518    1.9990081322   -0.5238124381
H        2.8529587375    0.2557262967   -0.4735819816
H        4.4059229823    0.8373754085    0.1078511483
H        1.0677470640   -1.5433900242    1.1292545296
H       -1.1202999606   -1.2166567290   -2.3138662389
24   

C       -0.0398809376    1.1987840066   -0.2702495325
C        0.6058837515    0.3650198598    0.6095581290
C        1.5434420256    0.8131615410    1.7034987796
C       -0.9318283101    0.6511114480   -1.3434935018
C       -0.5507074716   -1.5988387284   -0.3615354771
C        3.7037518700    1.7625269737    2.4649561017
C        3.3280441912    1.2613161469    0.0350227179
N        0.4682066654   -1.0294209141    0.5154659498
N       -0.5987816407   -0.7653197799   -1.5635786944
N        2.8220008635    1.2908643880    1.4034158092
O        1.1720612201    0.7613147259    2.8814887559
H        0.1238852830    2.2670910987   -0.2091143139
H       -1.9765818862    0.7458879081   -1.0289930299
H       -0.7948920405    1.2203570474   -2.2685347886
H       -0.2818958986   -2.6248714667   -0.6315144390
H       -1.5241122307   -1.6024736904    0.1409795309
H        4.2969224212    0.9321688149    2.8600895695
H        3.1297657353    2.2105606461    3.2826690106
H        4.3790870106    2.5338849851    2.0816758188
H        3.1107685192    2.2065244295   -0.4716798284
H        2.8860481844    0.4394261592   -0.5377708001
H        4.4106631075    1.1000823457    0.0364473186
H        0.8694894040   -1.6115712841    1.2453206695
H       -1.1824340335   -1.1845903160   -2.2795594788
24   

C        0.1662517381    1.0878757685   -0.3070044280
C        0.7567213743    0.2566022718    0.6147046717
C        1.7321722618    0.6823427529    1.6804015370
C       -0.7956693679    0.5559379299   -1.3267122928
C       -0.5983425949   -1.6495386608   -0.1977690676
C        3.8131056211    1.7985052498    2.4243688414
C        3.3874532921    1.4255985026   -0.0191370753
N        0.4925131938   -1.1199295279    0.6146648935
N       -0.6044888744   -0.8973391196   -1.4533290605
N        2.9319055347    1.3255324641    1.3631466088
O        1.4479138240    0.4733786721    2.8664909325
H        0.4143044896    2.1414347999   -0.3129159650
H       -1.8197390377    0.7716945838   -1.0039102967
H       -0.6258084632    1.0454606276   -2.2910421835
H       -0.4318485256   -2.7118350608   -0.4019344733
H       -1.5532053414   -1.5290879159    0.3254832335
H        4.4678585239    0.9890104976    2.7613716843
H        3.2330160818    2.1664887750    3.2771155500
H        4.4278993342    2.6299177347    2.0655155039
H        3.0787473483    2.3807693055   -0.4545855209
H        2.9902866900    0.6079063630   -0.6296286765
H        4.4787702523    1.3521055145   -0.0625642686
H        0.8321041548   -1.6692548323    1.4003763169
H       -1.2439194476   -1.3074977319   -2.1255397754
24   

C        0.2655916250    1.0054733132   -0.4086353974
C        0.7942941743    0.1715959400    0.5497278587
C        1.7845463329    0.5591953379    1.6139188715
C       -0.7482933390    0.5103164775   -1.3967152302
C       -0.7543075935   -1.6339102117   -0.1389910119
C        3.7819354343    1.7674777135    2.4300033599
C        3.3651163473    1.5579335820   -0.0313648142
N        0.3964612129   -1.1677687956    0.6274483651
N       -0.7057083356   -0.9593882045   -1.4367635316
N        2.9202687789    1.3279746148    1.3385456248
O        1.5726753823    0.1933326314    2.7781529287
H        0.5860170189    2.0375442537   -0.4617480595
H       -1.7443446551    0.8468186911   -1.0899745290
H       -0.5343189959    0.9214641734   -2.3884679826
H       -0.6962580222   -2.7176161816   -0.2806511945
H       -1.6838895005   -1.3885033019    0.3860816926
H        4.4733405247    0.9676346408    2.7125699043
H        3.1855299427    2.0492766333    3.3041573303
H        4.3576780951    2.6486457669    2.1298674850
H        2.9901998553    2.5176553091   -0.3996413340
H        3.0265269996    0.7575616695   -0.6975193254
H        4.4589022520    1.5656628363   -0.0761605225
H        0.6861265060   -1.6886242122    1.4529321191
H       -1.3908130220   -1.3435643670   -2.0785552840
24   

C        0.3734667621    0.9062401227   -0.4656591393
C        0.8691989193    0.0916738350    0.5288933241
C        1.8772197939    0.4674955574    1.5808858598
C       -0.6908385315    0.4280614379   -1.4089843612
C       -0.8421964353   -1.6189266929   -0.0086103883
C        3.7973105194    1.7527701146    2.4539508424
C        3.3745886872    1.6757711710   -0.0092634112
N        0.3620997606   -1.1978726697    0.6982819981
N       -0.7705627243   -1.0389038785   -1.3495701765
N        2.9445266656    1.3424766703    1.3437829266
O        1.7663912967   -0.0343766185    2.7085851454
H        0.7397342126    1.9172199335   -0.5779430577
H       -1.6517569153    0.8658947452   -1.1185747420
H       -0.4578550521    0.7515566940   -2.4285301204
H       -0.8753001646   -2.7108067450   -0.0761049990
H       -1.7348833633   -1.2625911704    0.5168842802
H        4.5164638820    0.9627982789    2.6918034822
H        3.1944084237    1.9664151760    3.3428930184
H        4.3420018625    2.6676003500    2.2001187919
H        2.9482133666    2.6335072258   -0.3226210548
H        3.0830717070    0.8958317074   -0.7202342453
H        4.4662342443    1.7477600453   -0.0504545034
H        0.6470414250   -1.6900088018    1.5440952066
H       -1.4982966427   -1.4077774882   -1.9521386432
24   

C        0.4488408326    0.8197551006   -0.5608774995
C        0.9112457098    0.0260376992    0.4688982998
C        1.9394109239    0.3808451097    1.5114207950
C       -0.6585115848    0.3644711356   -1.4664317901
C       -0.9470233145   -1.5702003724    0.0621255339
C        3.7816511646    1.7158599504    2.4680147528
C        3.3478480337    1.8055727364    0.0133149110
N        0.3015050358   -1.2019926460    0.7185738881
N       -0.8542097065   -1.0840932698   -1.3133596593
N        2.9359358270    1.3513385282    1.3358556549
O        1.9386489514   -0.2541581726    2.5762169747
H        0.8567867495    1.8044315579   -0.7332954473
H       -1.5794314328    0.8949314253   -1.2021508382
H       -0.4102133585    0.6017114234   -2.5059037615
H       -1.0677318030   -2.6579743058    0.0669236477
H       -1.7973947348   -1.1098002095    0.5767854114
H        4.5431451903    0.9477098252    2.6355675376
H        3.1794919173    1.8256326600    3.3761604823
H        4.2757662257    2.6751321950    2.2844586699
H        2.8514930345    2.7467596716   -0.2419167109
H        3.1261930837    1.0512576883   -0.7486112417
H        4.4305918989    1.9661907013   -0.0100336120
H        0.6021407373   -1.6926782478    1.5607733067
H       -1.6186598032   -1.4310316610   -1.8824962277
24   

C        0.5444024589    0.7148142407   -0.6588715347
C        0.9538934336   -0.0206939428    0.4376296436
C        2.0205366897    0.3049394845    1.4564972443
C       -0.6103386376    0.2763104935   -1.5132890784
C       -1.0454828683   -1.4816776493    0.1781699825
C        3.8118159452    1.6447658025    2.4981223283
C        3.2946506086    1.9784270247    0.0867363521
N        0.2337707767   -1.1556070116    0.7952473967
N       -0.9243783881   -1.1312372629   -1.2345714054
N        2.9506530060    1.3519516415    1.3554547516
O        2.1246653086   -0.4397804835    2.4431407386
H        1.0202312916    1.6382118233   -0.9444422333
H       -1.4803155359    0.9031195312   -1.2907705495
H       -0.3577544872    0.4008818505   -2.5712001048
H       -1.2521191202   -2.5513598201    0.2827397557
H       -1.8520299977   -0.9100098852    0.6499883182
H        4.6179694045    0.9072346978    2.5640649925
H        3.2338883475    1.6257945833    3.4281693116
H        4.2487335308    2.6440322136    2.4054198472
H        2.6585785856    2.8497137079   -0.0971778436
H        3.2053471561    1.2624896862   -0.7367028208
H        4.3375660066    2.3114559754    0.0978504506
H        0.5582019957   -1.6571728581    1.6227153902
H       -1.7203752941   -1.4615793069   -1.7692590295
24   

C        0.8368522690    0.5554492036   -0.6747778351
C        0.9097584525    0.2860574384    0.6754731253
C        2.1048905462    0.4530629003    1.5801136107
C       -0.3586537920    0.1473237669   -1.4804485227
C       -1.3275116013   -0.8149968421    0.5878596990
C        4.3203676677    1.3395586243    2.2115586690
C        2.9809243022    2.5122980011    0.4615038649
N       -0.1279671115   -0.3936210564    1.3070508014
N       -0.9722633911   -1.0105847368   -0.8174555876
N        3.1394070192    1.3716490649    1.3548785863
O        2.1582302384   -0.2372509251    2.6070543357
H        1.6905405639    0.9486143483   -1.2068779547
H       -1.0717609203    0.9759299887   -1.5380555997
H       -0.0468816016   -0.1213589880   -2.4951655551
H       -1.7005972981   -1.7550065989    1.0067367261
H       -2.1077426797   -0.0523327069    0.6805334958
H        5.1567455829    1.8570034568    1.7311814131
H        4.6350280159    0.3061213232    2.3917760177
H        4.1062369044    1.8198185287    3.1714326171
H        1.9275608319    2.7953422488    0.3683417634
H        3.3919594699    2.2863165761   -0.5271059039
H        3.5064181100    3.3834887003    0.8659572986
H        0.1232249021   -0.8479969144    2.1858696880
H       -1.7466873242   -1.3965302325   -1.3468213519
24   

C        0.8969813732    0.4407522260   -0.7242458636
C        0.9511232026    0.2225589343    0.6341303995
C        2.1611559364    0.3669378195    1.5172742123
C       -0.3264727819    0.0886616711   -1.5139089277
C       -1.3778112699   -0.6629488318    0.6055240298
C        4.3305213780    1.3568908020    2.1620232432
C        2.8617754203    2.5461435649    0.5224303489
N       -0.1422757083   -0.3260517206    1.3089877850
N       -1.0448971554   -0.9667410182   -0.7865548485
N        3.1208199687    1.3719889403    1.3469468423
O        2.3074322175   -0.4429251178    2.4420687848
H        1.7830280721    0.7559819350   -1.2580788330
H       -0.9628679795    0.9716746180   -1.6305214809
H       -0.0350918823   -0.2697644715   -2.5067443481
H       -1.8425870655   -1.5379824846    1.0708389246
H       -2.0787896991    0.1767900316    0.6551287370
H        5.1179597850    1.9520049510    1.6889460016
H        4.7109676296    0.3352431547    2.2665942207
H        4.1230424160    1.7639130366    3.1565089365
H        1.7883215872    2.7482996381    0.4497712617
H        3.2761683326    2.4093460526   -0.4809872364
H        3.3204392973    3.4317491059    0.9740364322
H        0.0847809393   -0.8119360929    2.1765128426
H       -1.8510968654   -1.3110804291   -1.2968853024
24   

C        0.9825692946    0.3083222229   -0.7817935367
C        1.0312674614    0.1366857259    0.5817427391
C        2.2574305897    0.2582687243    1.4441232181
C       -0.2709846887    0.0210415184   -1.5501985565
C       -1.3714557459   -0.5134070713    0.6133557151
C        4.3691335461    1.3438890889    2.1343616180
C        2.7872155053    2.5420104877    0.6041419954
N       -0.1018706154   -0.2755722777    1.2970648927
N       -1.0827212559   -0.9183701579   -0.7630358848
N        3.1386396097    1.3403958787    1.3514842517
O        2.4973590552   -0.6518936649    2.2471732873
H        1.8880279048    0.5480881464   -1.3237213481
H       -0.8241172271    0.9499891892   -1.7215408723
H       -0.0169525253   -0.4213253314   -2.5191683469
H       -1.9223030591   -1.3109412216    1.1219753128
H       -1.9801004026    0.3967847012    0.6237488974
H        5.1135186845    1.9994943458    1.6716898870
H        4.8023139106    0.3390728655    2.1791879968
H        4.1694546094    1.6917997306    3.1525460942
H        1.7014797448    2.6722105050    0.5517099213
H        3.1950487355    2.4945480120   -0.4101104910
H        3.1889965763    3.4282423085    1.1058064876
H        0.0876227976   -0.7777307245    2.1631439887
H       -1.9220518766   -1.2108886360   -1.2518831601
24   

C        1.0344965780    0.1649162333   -0.8630924575
C        1.0902957799    0.0597069192    0.5055315142
C        2.3387490393    0.1581812290    1.3406767982
C       -0.2504401787   -0.0562176772   -1.6010148666
C       -1.3636029733   -0.3403494491    0.6050883334
C        4.3782957587    1.3318385244    2.1079102354
C        2.6867193230    2.5354052058    0.7004433270
N       -0.0654517282   -0.2028933676    1.2626962066
N       -1.1399372741   -0.8563159078   -0.7459811419
N        3.1329873274    1.3082119097    1.3494190174
O        2.6758889284   -0.8240829976    2.0115199263
H        1.9490814528    0.3124530920   -1.4229436565
H       -0.7149066490    0.9070694858   -1.8347683355
H       -0.0513896748   -0.5868286187   -2.5380072712
H       -1.9902096247   -1.0412998168    1.1656259363
H       -1.8698877562    0.6297639092    0.5650976906
H        5.0725072629    2.0600021013    1.6768533208
H        4.8712307989    0.3544623434    2.0779365578
H        4.1811823727    1.5994626577    3.1505532150
H        1.5941245912    2.5875093925    0.6558858959
H        3.0908559721    2.5986964971   -0.3144343287
H        3.0228068517    3.4067373027    1.2715684862
H        0.0813013324   -0.6924142852    2.1429692238
H       -2.0116070423   -1.0935885390   -1.2074575122
24   

C        1.1142689771   -0.0046490725   -0.9282372145
C        1.2061771978   -0.0042587318    0.4414424750
C        2.4897199671    0.0856591881    1.2286670509
C       -0.2064315914   -0.1840001090   -1.6124312610
C       -1.2682578016   -0.1823429808    0.6378040905
C        4.4328239669    1.3518050595    2.1013364163
C        2.6156535109    2.5382285105    0.8439912448
N        0.0569163519   -0.1177305528    1.2513642886
N       -1.1340100810   -0.8265844228   -0.6689788578
N        3.1748567286    1.2961062597    1.3654912978
O        2.9405758024   -0.9359865549    1.7568533046
H        2.0193922420    0.0357303057   -1.5207015490
H       -0.5974144097    0.7902095987   -1.9230199959
H       -0.0795101280   -0.8103195257   -2.5016461646
H       -1.9404926016   -0.7717276459    1.2693646157
H       -1.6822394450    0.8254286463    0.5276550695
H        5.0645254165    2.1565518211    1.7124073596
H        4.9931985750    0.4174228542    1.9925782447
H        4.2411152797    1.5296344508    3.1639584367
H        1.5231934114    2.4961936741    0.7906996169
H        3.0139590888    2.7450310236   -0.1539610262
H        2.8681535348    3.3715512357    1.5073059368
H        0.1822671525   -0.5570111343    2.1599571508
H       -2.0370288456   -1.0229770351   -1.0874360874
24   

C        1.1200453678   -0.1954903173   -1.0064382963
C        1.2612317145   -0.0472146695    0.3506390832
C        2.5810579282    0.0450680418    1.0808868911
C       -0.2321546966   -0.3608267066   -1.6298589018
C       -1.2123821840   -0.0385235503    0.6343074494
C        4.4348275558    1.3722240141    2.0656989945
C        2.4907738837    2.5250724366    0.9732700783
N        0.1335388426   -0.0175343011    1.2036228181
N       -1.1694776917   -0.8274277187   -0.5966094900
N        3.1527337640    1.2875018696    1.3730905129
O        3.1457933313   -0.9871518958    1.4546248944
H        2.0050163462   -0.2759507186   -1.6249111639
H       -0.5683465324    0.5971315299   -2.0396398239
H       -0.1763523567   -1.0894338128   -2.4453469370
H       -1.9074126660   -0.5008782401    1.3422917781
H       -1.5497142339    0.9821224240    0.4251824701
H        5.0194130505    2.2158120278    1.6859615308
H        5.0337178310    0.4693174611    1.9090730747
H        4.2727347136    1.5048881850    3.1398005295
H        1.9207888812    2.3958928526    0.0482946153
H        3.2284825197    3.3113745445    0.7859687900
H        1.8120617096    2.8598598836    1.7640487240
H        0.2548996428   -0.3711442084    2.1485665669
H       -2.0979366040   -0.9984838254   -0.9679039218
24   

C        1.1355857116   -0.3607815889   -1.0462355415
C        1.3283708612   -0.0800351267    0.2831999303
C        2.6825793926    0.0264942361    0.9474206146
C       -0.2402910005   -0.5319049716   -1.6133908761
C       -1.1358874040    0.0568443718    0.6304109931
C        4.4344170722    1.3700960215    2.0984717968
C        2.3945584596    2.4839150195    1.1638880169
N        0.2256671295    0.0643175537    1.1612096890
N       -1.1646837493   -0.8515079912   -0.5147493611
N        3.1558581359    1.2626299683    1.4023280696
O        3.3604047149   -0.9866916971    1.1418565748
H        1.9973900486   -0.5373848771   -1.6776467239
H       -0.5502911048    0.3933967439   -2.1098979138
H       -0.2376621251   -1.3401230082   -2.3521112868
H       -1.8317178760   -0.2970588493    1.3976202947
H       -1.4290608519    1.0676879723    0.3277744636
H        5.2042174358    1.7439676348    1.4165671114
H        4.7615093896    0.4051245004    2.4983276627
H        4.3424450993    2.0559054434    2.9464419565
H        1.8616084841    2.4394600896    0.2087801951
H        3.0658075902    3.3471692171    1.1167998017
H        1.6710490047    2.6424425719    1.9696502664
H        0.3577126853   -0.1969930896    2.1337552820
H       -2.1103223599   -1.0135647851   -0.8444194066
24   

C        1.3037890346   -0.4716797914   -1.0237913341
C        1.5110209859   -0.0723983829    0.2735759628
C        2.8831141389    0.1112131348    0.8796423121
C       -0.0727110808   -0.7278764967   -1.5556304734
C       -0.9561972883    0.0240961925    0.6396550588
C        4.5492577323    1.4464475108    2.1396576289
C        2.4036015904    2.5021573175    1.3930809299
N        0.4105884925    0.1039490798    1.1504319728
N       -0.9748070591   -0.9795080796   -0.4219771091
N        3.2493966438    1.3170004837    1.4902349395
O        3.6976910643   -0.8163375132    0.8703464555
H        2.1622222017   -0.6785362917   -1.6510818200
H       -0.4143805217    0.1438584273   -2.1232800291
H       -0.0551547350   -1.5944725179   -2.2246647682
H       -1.6362785749   -0.2772373796    1.4425888793
H       -1.2740718569    0.9989042110    0.2548097205
H        5.3140881145    1.7146067419    1.4043522033
H        4.8369339870    0.5097974985    2.6284250574
H        4.5119409768    2.2190455835    2.9140512649
H        1.7794077342    2.4750009024    0.4943007667
H        3.0220449527    3.4024893120    1.3223567216
H        1.7582248659    2.5824351930    2.2730363900
H        0.5580599253   -0.0607728072    2.1413058090
H       -1.9195207287   -1.1907399193   -0.7253899629
24   

C       -0.1381361489    0.5902899270    0.7130556247
C        1.2057588728    0.4101298231    0.4873261585
C        2.2644390786    1.1339570470    1.2817625756
C       -1.1799152041   -0.0646010852   -0.1404169870
C        0.6631574535   -1.2124110462   -1.3356312851
C        4.4662612477    1.2693562124    2.3989255717
C        3.5620861721   -0.9581138600    1.7060244520
N        1.6310827222   -0.4164764492   -0.5841634116
N       -0.5693439630   -0.4348129166   -1.4251724243
N        3.4327769113    0.4954236864    1.7197511324
O        2.1146075007    2.3249142941    1.5702844548
H       -0.4483378614    1.2853709774    1.4841042738
H       -1.5613562223   -0.9566189815    0.3672376148
H       -2.0130893987    0.6270699953   -0.3026435845
H        1.0462418974   -1.4123150846   -2.3412577709
H        0.4823850971   -2.1667656078   -0.8296954341
H        4.1662718186    1.4776004698    3.4306969784
H        4.6396747011    2.2172595527    1.8786828260
H        5.4132532584    0.7206063559    2.4075049365
H        4.0625674971   -1.2995426080    2.6176289986
H        4.1442949096   -1.2820007348    0.8383131463
H        2.5831476792   -1.4470183453    1.6843912584
H        2.5194847982   -0.2063200553   -1.0276269064
H       -1.2396600754   -0.8609596730   -2.0562209085
24   

C       -0.2058621017    0.6149391793    0.5735376206
C        1.1394761991    0.3586140981    0.4373379877
C        2.1743083608    1.0792362928    1.2626124855
C       -1.2355147327   -0.0388899502   -0.2951208919
C        0.5983899984   -1.3632337307   -1.2973003859
C        4.4143792656    1.3348716106    2.2724068875
C        3.6441368569   -0.9263998331    1.5459434620
N        1.5679688609   -0.5630823864   -0.5527018493
N       -0.5785971889   -0.5285569924   -1.5147473343
N        3.4143643306    0.5136309146    1.5974792025
O        1.9348004482    2.2105146512    1.6951487951
H       -0.5242593436    1.3666695220    1.2861860699
H       -1.6954141454   -0.8719276313    0.2466131066
H       -2.0169885568    0.6843863219   -0.5502130378
H        1.0226461609   -1.6603821095   -2.2615095729
H        0.3356576317   -2.2643586495   -0.7330068262
H        4.1408303652    1.4783665106    3.3224661143
H        4.4951344630    2.3134554524    1.7874041685
H        5.3993844611    0.8602698701    2.2223824708
H        4.2420155355   -1.2432298625    2.4063742949
H        4.1736925631   -1.1983083719    0.6281823888
H        2.7021012904   -1.4809514450    1.6007324219
H        2.4865689361   -0.4303701429   -0.9626076322
H       -1.2374403959   -0.9638756580   -2.1515964746
24   

C       -0.2094973018    0.6980076512    0.5559942390
C        1.1217869391    0.3453356131    0.5089160721
C        2.1446417033    1.0133686579    1.3920490474
C       -1.2344127502    0.0916526968   -0.3518106900
C        0.5418437633   -1.4096350450   -1.1837333014
C        4.4093290154    1.3383647279    2.3195008114
C        3.7548990893   -0.9089396981    1.4658333925
N        1.5279672549   -0.6479666741   -0.4211244648
N       -0.5483409064   -0.4971833541   -1.5093443595
N        3.4360524375    0.5066231375    1.6173771429
O        1.8489117084    2.0521185234    1.9901319308
H       -0.5190945134    1.4878567525    1.2303718061
H       -1.7911948484   -0.6800155355    0.1899449027
H       -1.9388824206    0.8625753244   -0.6808903125
H        0.9945037810   -1.7874473171   -2.1058704013
H        0.1764003450   -2.2575653762   -0.5946720779
H        4.1755787519    1.3758603528    3.3881923270
H        4.4010818830    2.3567157493    1.9165426067
H        5.4209716999    0.9414115104    2.1891496533
H        4.4458431578   -1.2261641284    2.2533898300
H        4.2202837907   -1.0974637075    0.4940095498
H        2.8594240083   -1.5289567384    1.5735446396
H        2.4697877091   -0.5928483367   -0.7932462845
H       -1.2020486507   -0.9103059925   -2.1659851164
24   

C       -0.1970860089    0.7505831207    0.4815133441
C        1.1042245176    0.2970928691    0.5409100342
C        2.1042574706    0.9249758844    1.4829106116
C       -1.2105681478    0.1802923345   -0.4621059710
C        0.4715596246   -1.5173366164   -1.0725255706
C        4.3608655684    1.3470027875    2.3900013794
C        3.8832057142   -0.8495449352    1.3240137350
N        1.4769265405   -0.7813416147   -0.3107451806
N       -0.5092362737   -0.5413887274   -1.5315234262
N        3.4393490536    0.5053090076    1.6305447935
O        1.7487609024    1.8587199194    2.2082778835
H       -0.4904686770    1.5895700118    1.1016197361
H       -1.8716813526   -0.5017773576    0.0826388394
H       -1.8171628895    0.9878008961   -0.8850040578
H        0.9388527180   -2.0051221434   -1.9337098196
H       -0.0009229295   -2.2806095497   -0.4449900544
H        4.1630501355    1.2545673849    3.4626036422
H        4.2492771240    2.3960802586    2.0958119317
H        5.3985510278    1.0605134203    2.1922162600
H        4.6858406359   -1.1476699244    2.0061034663
H        4.2585302025   -0.9107116859    0.2983766217
H        3.0738106263   -1.5708318861    1.4730811317
H        2.4314839376   -0.8105861203   -0.6495054237
H       -1.1567574947   -0.9449930291   -2.2001402105
