20

C     -0.95221   -2.68446   -0.21939
C      2.39684   -0.85978   -0.24956
C      1.81760   -1.36599    2.44494
C      1.16655   -0.46266    0.27869
C      3.31682   -1.51208    0.56381
C      0.89948   -0.72293    1.62659
C      3.04229   -1.76885    1.90824
C     -1.51947   -1.48592   -0.85228
C     -0.46178   -0.54908   -1.46321
N     -0.49746   -3.64034    0.26176
O      0.23937    0.21697   -0.47849
F      4.49818   -1.88598    0.03172
F     -0.29973   -0.36183    2.13636
Br     4.32599   -2.65672    2.99542
H      2.64660   -0.65669   -1.28612
H      1.56656   -1.56245    3.48143
H     -2.19995   -1.81525   -1.64549
H     -2.10789   -0.93538   -0.11260
H     -0.96839    0.19126   -2.08541
H      0.23861   -1.11512   -2.08755
