36

C      1.75550    6.10426   -4.31647
C      0.07766    2.24911    0.05767
C     -0.53984    0.98248    0.20590
C     -0.64263    3.33055   -0.40967
C     -1.87213    0.81781   -0.11262
C     -4.15009    3.99193   -1.52718
C      0.44103    5.83307   -3.86773
C     -2.01593    3.18921   -0.74924
C     -2.83245    4.25380   -1.24110
C     -2.64020    1.91030   -0.59530
C     -4.68729    2.68360   -1.33887
C     -0.67679    5.30632   -4.59224
C     -0.04169    6.07123   -2.57565
C     -6.13504    2.41666   -1.66826
C     -0.71338    4.88569   -6.02649
C     -2.27469    5.64314   -1.46033
N      2.84788    6.34137   -4.65757
N     -3.95723    1.68039   -0.89062
N     -1.74631    5.23529   -3.81347
N     -1.34113    5.69182   -2.58083
N      0.62473    6.50400   -1.43014
H      1.12744    2.36905    0.31226
H      0.04087    0.14027    0.57319
H     -0.14626    4.28970   -0.51539
H     -2.37176   -0.14053   -0.00636
H     -4.79231    4.77653   -1.91990
H     -6.33757    2.62152   -2.72588
H     -6.37818    1.37422   -1.45732
H     -6.79711    3.06293   -1.08042
H     -0.00698    4.06938   -6.20959
H     -1.71811    4.54767   -6.28735
H     -0.43398    5.71383   -6.68600
H     -3.09116    6.34387   -1.65498
H     -1.73646    5.98640   -0.57360
H      0.19423    7.30712   -0.97983
H      1.60142    6.70695   -1.62719
