28

C      3.17205   -7.41322    3.00192
C      4.46714   -7.23014    2.48922
C      2.13769   -6.53402    2.67645
C      4.74953   -6.15674    1.63724
C      2.39916   -5.45181    1.82380
C      3.71280   -5.28146    1.31543
C      2.01216   -3.63066    0.63719
C      0.19299   -0.37463   -1.28112
C      0.65892   -0.82109   -2.46210
C     -0.42228   -1.21829   -0.22475
C      0.63625   -2.23806   -2.95965
N      1.46446   -4.50635    1.42025
N      0.09693   -2.25031    0.35593
N     -1.64987   -0.75596    0.26130
N      1.38842   -2.58363    0.01703
S      3.75776   -3.85429    0.28280
H      2.97233   -8.25272    3.66268
H      5.25903   -7.92515    2.75450
H      1.13385   -6.66804    3.06866
H      5.75098   -6.01388    1.24099
H      0.21333    0.69368   -1.07084
H      1.07639   -0.08021   -3.14381
H      1.65447   -2.63941   -3.04052
H      0.20473   -2.27311   -3.96668
H      0.06634   -2.89981   -2.30544
H     -2.30227   -0.47298   -0.46325
H     -2.06644   -1.40633    0.92259
H      1.96394   -1.89637   -0.46378
