33

C     -1.71775    0.07742   -1.55900
C     -2.17710    1.02925   -0.63968
C     -0.66174   -0.78321   -1.22579
C     -1.58584    1.13286    0.62741
C     -0.07160   -0.67561    0.03259
C     -0.53440    0.27713    0.94872
C      0.58764    1.60498    4.22192
C      1.06394   -1.47280    0.64004
C      0.25507    0.18240    2.23752
C      1.55462   -0.57484    1.80792
C      2.66131    0.37963    1.34786
C      1.20036    5.27024    4.04103
C      0.84669    3.02698    4.70987
N      0.45365    1.46901    2.87906
O      0.50277    0.68191    5.03320
O      0.96488    3.93279    3.62220
H     -2.18054    0.00990   -2.54045
H     -2.99466    1.69191   -0.91208
H     -0.30485   -1.51629   -1.94614
H     -1.93961    1.86950    1.34515
H      0.68675   -2.43078    1.02179
H      1.85940   -1.70267   -0.07667
H     -0.28347   -0.43707    2.96290
H      1.92556   -1.17389    2.64426
H      2.33187    0.99586    0.50276
H      3.54033   -0.18709    1.02377
H      2.97304    1.04913    2.15491
H      1.27649    5.88058    3.13888
H      2.13683    5.34894    4.61165
H      0.37358    5.64336    4.66237
H      0.01631    3.31018    5.37262
H      1.76518    3.01061    5.31325
H      0.60811    2.29543    2.31279
