45

C      4.39126   -7.35615   -6.15209
C      3.58602   -7.91663   -5.15483
C      4.07517   -6.09198   -6.66090
C      2.47626   -7.21931   -4.67290
C      2.96528   -5.39576   -6.17760
C      0.15991   -4.44074   -5.51901
C      0.61388   -5.24595   -3.30688
C     -0.94532   -3.74270   -5.03433
C     -0.49423   -4.54439   -2.82753
C      2.14706   -5.94794   -5.17593
C      0.96843   -5.20849   -4.66413
C     -1.30096   -3.76763   -3.67465
C     -4.45450   -5.73370   -1.94728
C     -1.70126   -0.46269   -1.94129
C     -1.72546   -0.66529   -3.46236
C     -1.52677   -1.79908   -1.20708
C     -2.78830   -1.69595   -3.86401
C     -2.57976   -2.82390   -1.65309
C     -2.57577   -3.06873   -3.17991
C     -3.78119   -3.97069   -3.56264
N     -3.71168   -5.31591   -3.01060
O     -5.30334   -5.06789   -1.36531
H      5.25513   -7.89804   -6.52795
H      3.81706   -8.90214   -4.75836
H      4.69989   -5.64275   -7.42880
H      1.84315   -7.67678   -3.91726
H      2.74677   -4.40251   -6.56058
H      0.38158   -4.41048   -6.58257
H      1.22799   -5.80663   -2.60700
H     -1.54297   -3.17706   -5.74246
H     -0.71524   -4.60094   -1.76762
H     -4.21366   -6.77490   -1.65761
H     -2.64575    0.00199   -1.62616
H     -0.90006    0.23166   -1.66263
H     -1.92679    0.28618   -3.96839
H     -0.73971   -1.00321   -3.80518
H     -0.51941   -2.18612   -1.40029
H     -1.60242   -1.64798   -0.12393
H     -3.77661   -1.32355   -3.56333
H     -2.82688   -1.79936   -4.95306
H     -2.46473   -3.76213   -1.10372
H     -3.57575   -2.45411   -1.38250
H     -3.84886   -4.04216   -4.65401
H     -4.70700   -3.52598   -3.19230
H     -2.98370   -5.93293   -3.34936
