59

C      1.37229    1.88619    0.44715
C      0.75430    3.56403   -1.18087
C     -1.13561    0.44030   -0.39608
C      2.64019    2.45742    0.54758
C      2.02612    4.12561   -1.07877
C     -2.40298   -0.12388   -0.50568
C    -11.93480   -4.74297   -1.63010
C    -10.56904   -6.51687   -0.68750
C    -13.08248   -5.50399   -1.42098
C    -11.72227   -7.28518   -0.47784
C     -2.07680    2.62252   -0.76698
C      0.40404    2.43104   -0.41959
C     -0.93855    1.83229   -0.52756
C      2.98761    3.58291   -0.21373
C     -3.36255    2.08287   -0.88629
C     -3.49946    0.69904   -0.75468
C    -10.68066   -5.24737   -1.26282
C    -12.95651   -6.76794   -0.84560
C      4.40149    4.21182   -0.10398
C     -4.56274    2.97017   -1.15188
C     -5.87958    2.23549   -0.86969
C     -5.79282    0.83310   -1.46119
C     -7.04738   -0.00230   -1.22476
C     -7.63511   -2.47563   -1.00223
C     -8.30896   -4.89283   -1.22719
C     -7.29974   -3.82388   -1.63736
N     -6.71224   -1.43438   -1.55989
O      4.58249    5.22988   -0.82358
O      5.18148    3.62132    0.68956
O     -4.76110    0.06894   -0.83428
O     -7.27943   -3.55288   -3.04100
O     -9.60664   -4.40696   -1.50467
F    -14.07170   -7.50990   -0.64183
H      1.11460    1.03407    1.07432
H      0.03741    3.97984   -1.88746
H     -0.27816   -0.20512   -0.23502
H      3.39714    2.06052    1.21845
H      2.32120    4.99047   -1.66657
H     -2.54589   -1.19794   -0.41162
H    -11.99645   -3.75720   -2.08113
H     -9.60995   -6.92775   -0.39327
H    -14.06386   -5.13279   -1.69885
H    -11.66216   -8.27330   -0.03282
H     -1.96058    3.70111   -0.83452
H     -4.50354    3.87275   -0.53685
H     -4.54940    3.30621   -2.19628
H     -6.04378    2.14452    0.21017
H     -6.73091    2.77617   -1.29805
H     -5.58238    0.90125   -2.54125
H     -7.89268    0.31334   -1.83786
H     -7.32637    0.01892   -0.16940
H     -8.65479   -2.18893   -1.25971
H     -7.51880   -2.49243    0.08246
H     -8.18370   -5.11176   -0.15643
H     -8.10366   -5.81820   -1.78454
H     -6.30729   -4.16107   -1.30093
H     -6.67921   -1.57696   -2.57895
H     -5.74274   -1.55875   -1.21727
H     -7.09335   -4.36374   -3.54143
