23

C     -4.62866   -3.97900   -4.17628
C     -4.14336   -3.14221   -3.13461
C     -4.30081   -5.30312   -3.99404
C     -7.43009   -1.23245   -0.73352
C     -3.43625   -3.83446   -2.16639
C     -6.96972   -2.48917   -0.46377
C     -5.00262   -1.48081   -0.65471
C     -2.71258   -3.38253   -0.99002
C     -7.80983   -3.70597   -0.21460
N     -5.58761   -2.61677   -0.42206
N     -2.71484   -2.25840   -0.35187
N     -3.62609   -1.26766   -0.74806
S     -3.38247   -5.54134   -2.55436
S     -6.09536   -0.12815   -0.98200
H     -5.20179   -3.61951   -5.02463
H     -4.29373   -2.07101   -3.10416
H     -4.55572   -6.14702   -4.62260
H     -8.45289   -0.88570   -0.79822
H     -1.99014   -4.08765   -0.57796
H     -7.57801   -4.48173   -0.95216
H     -7.59645   -4.12229    0.77552
H     -8.87536   -3.47096   -0.27433
H     -3.34443   -0.39088   -0.32176
