18

C      2.18384   -1.07128    0.16850
C      1.11042   -0.29544    0.60879
C      2.46837   -1.96002    2.40528
C      1.39812   -1.18124    2.83065
C      2.87514   -1.89671    1.06632
C      0.71147   -0.34243    1.94731
C      5.70702   -1.86371    0.75279
C      5.52439   -0.48256    1.34214
O      6.77699   -2.33262    0.43410
F      1.01893   -1.24196    4.12203
S      4.23562   -2.91208    0.49702
Cl    -0.62385    0.61813    2.51576
H      2.48654   -1.03409   -0.87324
H      0.57464    0.34791   -0.08204
H      2.97206   -2.60250    3.12067
H      4.85214    0.11864    0.72431
H      6.50388   -0.00544    1.40171
H      5.08011   -0.54428    2.33934
