22

C      1.87522   -1.26796   -0.10078
C      0.82486   -0.73389    0.64438
C      3.03653   -1.71978    0.53090
C      2.08058   -1.09220    2.68869
C      0.92123   -0.64287    2.04522
C      3.11408   -1.62138    1.91983
C     -0.20270   -0.07605    2.79389
C     -2.02879    0.78957    3.34849
N     -1.33246    0.38557    2.26421
N     -1.44151    0.62556    4.52507
N     -0.26994    0.06861    4.15189
N      4.33131   -2.09186    2.60919
N     -3.36566    1.38026    3.24962
O      5.23771   -2.55723    1.91442
O     -3.84169    1.47801    2.11881
O      4.36613   -1.99004    3.84032
O     -3.90107    1.72887    4.30211
H      1.79072   -1.33369   -1.18118
H     -0.07984   -0.38110    0.15993
H      3.86670   -2.13882   -0.02558
H      2.21367   -1.04660    3.76353
H      0.40481   -0.17635    4.86770
