27

C      2.04430    2.30572    2.52208
C      2.17717   -1.67289   -0.02979
C      1.10999   -0.92720    0.46902
C      3.18401   -2.14028    0.82063
C      2.02388   -1.14217    2.70795
C      1.76540    2.45542    1.13832
C      1.02818   -0.65290    1.84637
C      3.09385   -1.86580    2.18684
C      0.61416    2.13751    0.45238
C      2.07943    3.04003   -0.90384
C     -0.09894    0.08074    2.46091
C      2.54754    3.55720   -2.21601
N      2.25849    2.17382    3.66087
N      2.68371    3.01973    0.23653
N     -0.86311    1.01700    2.01385
N     -0.59628    1.52866    0.72759
O      0.79869    2.50089   -0.85202
Cl     4.34771   -2.44694    3.26670
H      2.23334   -1.89222   -1.09246
H      0.33559   -0.57335   -0.20116
H      4.02299   -2.70970    0.43344
H      1.97870   -0.92856    3.77126
H     -0.35095   -0.20923    3.48069
H      2.53463    2.76911   -2.97553
H      1.90570    4.37237   -2.56568
H      3.56615    3.92869   -2.10086
H     -1.38926    2.08843    0.42581
