30

C     -4.78520    0.63543   -0.04988
C     -3.62112   -0.13616   -0.01033
C     -5.05607    1.46626   -1.13978
C     -2.99769    0.70500   -2.20165
C      3.10467    2.93761   -1.10966
C      1.43034    1.16328   -1.40122
C     -2.72234   -0.10533   -1.08705
C      1.77153    2.43896   -0.99428
C     -4.14929    1.48890   -2.20342
C      4.06079    2.11647   -1.61225
C      2.46397    0.29619   -1.94925
C      0.03324    0.71483   -1.34420
C      5.50616    2.45659   -1.78645
N     -0.27085   -0.50474   -1.06089
N     -1.57031   -0.93289   -1.07619
O      2.35083   -0.82879   -2.37678
O      3.77159    0.85888   -2.00994
O      0.88193    3.30894   -0.44650
Cl    -4.48188    2.50929   -3.59342
H     -5.48262    0.60316    0.78263
H     -3.40433   -0.75994    0.85324
H     -5.95027    2.07994   -1.16952
H     -2.33965    0.69110   -3.06365
H      3.33842    3.94164   -0.77830
H     -0.73073    1.46427   -1.58008
H      6.12847    1.76570   -1.20802
H      5.70665    3.47838   -1.45917
H      5.79354    2.35320   -2.83805
H     -1.65351   -1.78458   -0.53574
H      0.03925    2.85323   -0.27887
