44

C     -0.15601   -5.45797   -1.64276
C      0.33834   -3.12284   -1.17453
C     -0.14750   -4.08451   -2.03818
C      0.34112   -5.83294   -0.42265
C      0.87848   -3.48486    0.12526
C     -2.50894    2.42420    2.46497
C      0.46259   -1.68877   -1.61419
C     -2.13419    0.05789    0.33340
C     -0.11251    1.54269    0.03154
C     -1.04714   -1.01346    0.27203
C      0.07383    0.67066   -1.20918
C     -2.48971    2.58745    0.14505
C     -1.53752    1.45739    0.59351
C     -0.65877   -3.73497   -3.41431
C      0.39095   -7.24640    0.08221
C     -4.20535    3.90699    1.46838
N      0.83046   -4.86182    0.40594
N     -3.23336    2.83585    1.36595
N     -0.17086   -0.73741   -0.87322
O      1.35871   -2.71545    0.96589
O     -2.73318    2.66093    3.63377
O      1.11428   -1.40385   -2.62735
O     -1.45266    1.66191    2.03589
H     -0.55143   -6.21488   -2.31111
H     -2.67738    0.06309   -0.61814
H     -2.85340   -0.17680    1.12271
H      0.57489    1.20152    0.81084
H      0.15131    2.57926   -0.19783
H     -0.47041   -1.04374    1.20145
H     -1.50227   -1.99656    0.13748
H     -0.59350    0.99012   -2.02236
H      1.09188    0.75472   -1.59190
H     -1.93799    3.48498   -0.17524
H     -3.14786    2.27905   -0.67272
H     -1.37114   -4.48611   -3.76705
H      0.17913   -3.69403   -4.11767
H     -1.13438   -2.75267   -3.43855
H      1.42292   -7.55042    0.29195
H     -0.02375   -7.93300   -0.65747
H     -0.18318   -7.35252    1.00990
H     -3.76211    4.87908    1.20929
H     -4.56430    3.94637    2.49757
H     -5.04982    3.71514    0.79882
H      1.21430   -5.10945    1.31354
