44

C     -5.80177    0.61579   -0.41256
C     -3.69596    1.40442    0.51096
C     -4.42066    0.94839   -0.57038
C     -6.41930    0.77540    0.79963
C     -4.31530    1.57944    1.81336
C      2.00839   -2.32989    0.03008
C     -2.28470    1.90199    0.33832
C      1.11988    0.81427    1.36572
C     -0.55311   -1.04824    1.48497
C      0.06040    1.84840    0.95523
C     -1.45998    0.12514    1.91055
C      0.66768   -0.58914   -0.72655
C      0.74545   -0.55542    0.81539
C     -3.80210    0.81503   -1.94026
C     -7.86625    0.47579    1.06739
C      1.41427   -2.37869   -2.36009
N     -5.67859    1.24091    1.85145
N      1.19960   -1.90920   -1.00486
N     -1.28702    1.26534    1.01486
O     -3.75850    1.97810    2.84330
O      2.77588   -3.26938    0.04071
O     -2.05727    2.85339   -0.41817
O      1.80917   -1.50412    1.10829
H     -6.37304    0.24359   -1.25585
H      2.09848    1.12005    0.98506
H      1.20473    0.74450    2.45465
H     -0.27661   -1.62965    2.36906
H     -1.08222   -1.72274    0.80429
H      0.11238    2.73181    1.60311
H      0.22551    2.19690   -0.06594
H     -2.50164   -0.18473    1.90135
H     -1.23691    0.44179    2.93497
H     -0.35798   -0.47401   -1.08817
H      1.28689    0.19627   -1.18684
H     -3.87720    1.76909   -2.47219
H     -4.31643    0.05003   -2.52870
H     -2.73977    0.56775   -1.88774
H     -7.97220   -0.28223    1.85200
H     -8.35468    0.10478    0.16504
H     -8.39653    1.37591    1.39899
H      0.45625   -2.47519   -2.88079
H      1.89772   -3.35525   -2.31260
H      2.05721   -1.69113   -2.92775
H     -6.11053    1.37202    2.76174
