24

C      1.50566    0.88410    0.90836
C      0.53333    0.18625    0.18662
C      2.45626    0.17760    1.63839
C      0.53435   -1.21014    0.19760
C      2.47505   -1.23456    1.68961
C      1.49279   -1.91004    0.93359
C      3.68686   -5.77531    4.09018
C      4.70856   -4.75774    4.04865
C      3.52806   -1.82562    2.52025
N      4.25268   -6.90221    4.45226
N      5.85889   -5.27727    4.38693
N      3.52951   -3.03657    2.95555
N      2.33548   -5.60065    3.88521
N      4.55373   -3.41045    3.76712
O      5.59643   -6.60571    4.65849
Br     1.41610   -3.82342    0.78309
H      1.52316    1.97009    0.90249
H     -0.21741    0.71822   -0.39082
H      3.20878    0.72245    2.20366
H     -0.20482   -1.76116   -0.37439
H      4.33600   -1.13703    2.80000
H      1.82575   -6.46567    3.74473
H      2.11165   -4.87332    3.21242
H      5.39997   -2.84119    3.80700
