35

C      5.00297   -3.84628   -4.97693
C      4.88863   -1.87931   -3.50193
C      5.89397   -3.94248   -2.68387
C      5.11748   -1.28268   -2.26567
C      6.14124   -3.32764   -1.45938
C      1.06175   -0.08072   -0.19165
C      1.82466    0.99990    0.24300
C      2.97647   -1.51914   -0.00483
C      5.26243   -3.21875   -3.71064
C      5.73391   -2.00609   -1.23431
C      1.62538   -1.36221   -0.31722
C      3.77595   -0.43041    0.37449
C      3.18349    0.83586    0.53217
C      6.08358   -1.37688    0.08537
C      5.60264    0.37636    1.72995
C      5.26665    1.77980    1.24537
C      0.79791   -2.53554   -0.78908
N      4.78800   -4.35621   -6.00267
N      5.15298   -0.56275    0.70064
O      7.19986   -1.56114    0.57245
O      3.86110    1.93616    0.99566
H      4.41677   -1.32081   -4.30426
H      6.19193   -4.97203   -2.85613
H      4.81241   -0.25414   -2.10450
H      6.65434   -3.86325   -0.66679
H      0.00893    0.06941   -0.41858
H      1.38769    1.98636    0.36783
H      3.42711   -2.50461   -0.06272
H      6.67680    0.25666    1.86670
H      5.09610    0.15886    2.67640
H      5.52117    2.53192    1.99593
H      5.82089    1.99506    0.32336
H      0.72333   -2.54999   -1.88315
H      1.23943   -3.48689   -0.47876
H     -0.22100   -2.49064   -0.39232
