44

C      0.24790   -5.15822   -3.65376
C      0.74408   -2.80596   -3.29706
C      0.99430   -4.13001   -2.99945
C     -0.69370   -4.84000   -4.59626
C     -0.24893   -2.43039   -4.28765
C     -0.92224    1.94984    2.04686
C      1.60999   -1.71157   -2.73001
C     -0.64644   -0.39056   -0.16563
C      1.59274    0.72440   -0.07196
C     -0.41682   -0.71117   -1.64813
C      1.77345    0.42476   -1.56245
C     -0.53516    2.16451   -0.24137
C      0.11556    0.86221    0.28042
C      2.06101   -4.53281   -2.01147
C     -1.51658   -5.84183   -5.35409
C     -2.11658    3.78230    0.90819
N     -0.91079   -3.51920   -4.87949
N     -1.36406    2.54364    0.88560
N      1.01031   -0.76046   -1.95081
O     -0.54649   -1.27918   -4.63144
O     -1.26284    2.19776    3.18501
O      2.82278   -1.71180   -2.96380
O     -0.00643    0.98050    1.72576
H      0.42902   -6.20004   -3.41341
H     -1.71796   -0.25836    0.02057
H     -0.30281   -1.22757    0.45059
H      2.01630   -0.09405    0.51888
H      2.12871    1.64042    0.19735
H     -0.86624   -1.67625   -1.87766
H     -0.90171    0.02749   -2.29807
H      1.43828    1.27761   -2.17148
H      2.81992    0.23973   -1.80008
H      0.21673    2.93682   -0.46634
H     -1.13389    2.00121   -1.14249
H      3.03012   -4.58400   -2.51831
H      1.84367   -5.51388   -1.58023
H      2.16644   -3.80585   -1.20353
H     -2.58731   -5.68197   -5.18242
H     -1.26798   -6.85725   -5.04173
H     -1.33546   -5.76071   -6.43208
H     -1.46391    4.65248    0.75044
H     -2.59623    3.87317    1.88357
H     -2.88433    3.77231    0.12775
H     -1.59887   -3.25322   -5.57811
