27   

C       -4.3482427939    0.0095630045    1.5992893149
C       -3.0710161919   -1.4971825999    0.2018905560
C       -3.1782156422    0.3869976803    2.2624186185
C       -1.8982541240   -1.0996932056    0.8559290011
C       -4.3105141943   -0.9378493902    0.5599144418
C       -1.9397887356   -0.1620454770    1.9029947948
C       -0.6837358808    1.5177427564    3.9256110862
C        0.8138464135    0.7248320122    1.6896274037
C       -5.5347088794   -1.3838027287   -0.1859329166
C       -6.8028352728   -0.5595854737   -0.0601155550
C       -0.1345389451   -1.2119452427    3.5232603601
O       -5.5037868019   -2.3360930319   -0.9557439472
S       -0.4131290404    0.3901059822    2.7444157866
H       -5.2817907043    0.4643287001    1.9103219992
H       -3.0106907577   -2.2291510639   -0.5979714203
H       -3.2326048913    1.1275678946    3.0550784957
H       -0.9491336108   -1.5214793181    0.5402317675
H       -0.0837129252    2.4173458553    3.9547509320
H       -1.4399743355    1.3560629438    4.6813750150
H        1.4361022292    1.5943884226    1.8548526830
H        0.9855498503    0.1015747222    0.8234170501
H       -6.5800508537    0.5001902815   -0.2099608541
H       -7.2475212737   -0.7078281279    0.9272881469
H       -7.5235200815   -0.8733653233   -0.8209048737
H        0.7450677352   -1.1348889362    4.1653842857
H       -1.0052312654   -1.4762988137    4.1261284002
H        0.0395692530   -1.9684646950    2.7571589050
27   

C       -4.3808273514   -0.0640302126    1.6964848567
C       -3.1022815143   -1.5161853936    0.2418563896
C       -3.2038905043    0.3325467616    2.3361336925
C       -1.9233060033   -1.0994846445    0.8722230232
C       -4.3439849782   -0.9957302678    0.6453361776
C       -1.9614797522   -0.1795897622    1.9356668312
C       -0.6945172106    1.5012313709    3.9502125322
C        0.7606795994    0.7825384625    1.6619575742
C       -5.5745229927   -1.4432099856   -0.0897748728
C       -6.7410593191   -0.4778210177   -0.1889649791
C       -0.0857323577   -1.2072809959    3.4894059916
O       -5.5854883942   -2.4799845227   -0.7416893799
S       -0.4270723720    0.3988694107    2.7447554379
H       -5.3214554011    0.3592707176    2.0307742118
H       -3.0482213843   -2.2319734379   -0.5729586880
H       -3.2560686384    1.0595213980    3.1414183371
H       -0.9723048831   -1.4911739654    0.5249912092
H       -0.1184323675    2.4164355784    3.9764959397
H       -1.4243226534    1.3076174232    4.7242398020
H        1.3633555975    1.6665075327    1.8232546653
H        0.9256224259    0.1765404136    0.7822968518
H       -6.3761700366    0.5378699995   -0.3639256798
H       -7.3246151156   -0.5036708829    0.7347496500
H       -7.3874942067   -0.7640496705   -1.0236527855
H        0.8090134423   -1.1172215984    4.1085109788
H       -0.9323265891   -1.5038921024    4.1112940259
H        0.0866317262   -1.9469093650    2.7065932823
27   

C       -4.3875705652   -0.1039795554    1.7675960603
C       -3.0968796649   -1.5019768800    0.2700915651
C       -3.2110747578    0.3075972028    2.3988532616
C       -1.9187346495   -1.0702861391    0.8917521457
C       -4.3422949139   -1.0194268138    0.7050634066
C       -1.9629969519   -0.1708120931    1.9728616313
C       -0.7045157189    1.5014208589    3.9997288364
C        0.7343917404    0.8523927977    1.6805609003
C       -5.5737723868   -1.4689099375   -0.0301289147
C       -6.6083132631   -0.4171163194   -0.3813399113
C       -0.0461270384   -1.1859747324    3.4840645010
O       -5.6368977845   -2.5813725750   -0.5377575036
S       -0.4303256302    0.4254121523    2.7722533600
H       -5.3363731003    0.2911916920    2.1136798343
H       -3.0431784135   -2.2013587936   -0.5588133457
H       -3.2681356679    1.0197351057    3.2169560024
H       -0.9640581199   -1.4339505363    0.5246904883
H       -0.1476171353    2.4281527923    4.0340184197
H       -1.4192564878    1.2790668620    4.7800781167
H        1.3202313112    1.7463156138    1.8488667810
H        0.9008827795    0.2643874103    0.7890748338
H       -6.1139471163    0.5193755879   -0.6533961080
H       -7.2679532733   -0.2450664988    0.4727298665
H       -7.2084796215   -0.7562416851   -1.2305457142
H        0.8551622023   -1.0883296481    4.0924370499
H       -0.8777948857   -1.5105678541    4.1121086852
H        0.1301763961   -1.9084409791    2.6862409844
27   

C       -4.4124576341   -0.1441430892    1.8727963549
C       -3.1494055623   -1.4691470829    0.2894700850
C       -3.2230478841    0.2745102759    2.4742023428
C       -1.9581641757   -1.0311688792    0.8814500933
C       -4.3862697554   -1.0286118448    0.7852454381
C       -1.9816708299   -0.1653766923    1.9906284361
C       -0.6847396246    1.4779880851    4.0170092845
C        0.6901170940    0.9055653049    1.6391530460
C       -5.6419919912   -1.4758773783    0.0858991540
C       -6.5306625868   -0.3907090430   -0.4878215952
C       -0.0050749783   -1.1863946925    3.4161702596
O       -5.7961829684   -2.6422420969   -0.2513938825
S       -0.4336753384    0.4357142948    2.7559541684
H       -5.3583801515    0.2187172401    2.2601199845
H       -3.1155636218   -2.1440437846   -0.5603060014
H       -3.2655729250    0.9610739291    3.3147239324
H       -1.0100189797   -1.3641344349    0.4708857062
H       -0.1404647363    2.4119671602    4.0566241028
H       -1.3713878539    1.2263179864    4.8135348468
H        1.2678735431    1.8041313974    1.8106518276
H        0.8381063576    0.3406091893    0.7297154623
H       -5.9178108401    0.4120954128   -0.9064696150
H       -7.1726238813    0.0169464173    0.2968147911
H       -7.1586419028   -0.8051405424   -1.2815990903
H        0.9138616444   -1.0904915090    3.9978242738
H       -0.8117405691   -1.5375394951    4.0623283504
H        0.1548885048   -1.8872638963    2.5959444867
27   

C       -4.4162454072   -0.1440535852    1.9956560762
C       -3.2100508022   -1.4342683336    0.3439659231
C       -3.2076248081    0.2645304859    2.5641622423
C       -1.9986351584   -1.0070456871    0.9026275156
C       -4.4280687429   -1.0032668278    0.8886396229
C       -1.9836662146   -0.1632875928    2.0288349716
C       -0.6196546117    1.4382282584    4.0442773359
C        0.6720138665    0.9209767282    1.6078989534
C       -5.7204695383   -1.4390049440    0.2419886151
C       -6.4470653211   -0.3930635208   -0.5772041361
C        0.0428624014   -1.2112174729    3.3622469691
O       -6.0147085328   -2.6225846775    0.1468241160
S       -0.4108358209    0.4239833259    2.7530683510
H       -5.3498834653    0.2059152584    2.4229354583
H       -3.2063698471   -2.0949271956   -0.5172213278
H       -3.2221996277    0.9327875716    3.4202453145
H       -1.0650412123   -1.3318768618    0.4539880331
H       -0.0768161923    2.3729821903    4.0849241768
H       -1.2771631044    1.1671711649    4.8588670434
H        1.2530721050    1.8176200834    1.7783557315
H        0.7895189010    0.3759286844    0.6820450770
H       -5.7264885995    0.2230133267   -1.1217724950
H       -7.0406514460    0.2457407707    0.0813448191
H       -7.1116895108   -0.8792976457   -1.2969248383
H        0.9806223076   -1.1257401850    3.9147542688
H       -0.7409370816   -1.5787172624    4.0272213916
H        0.1765007046   -1.8933720495    2.5218131379
27   

C       -4.4218069875   -0.1299593534    2.0714731543
C       -3.2555117368   -1.3273542539    0.3272788027
C       -3.2015280769    0.2527987523    2.6321865540
C       -2.0313406033   -0.9274019822    0.8792828282
C       -4.4606999716   -0.9138963362    0.9108675281
C       -1.9902491882   -0.1401258004    2.0447420501
C       -0.5783590904    1.3797831130    4.0917509103
C        0.6633351091    0.9460464865    1.6129443255
C       -5.7796197262   -1.3516149503    0.3156984732
C       -6.3687779973   -0.4433651550   -0.7417305889
C        0.0540109333   -1.2454053037    3.2988718437
O       -6.3777737168   -2.3378541347    0.7217127912
S       -0.4011806935    0.4137090869    2.7596947030
H       -5.3476876793    0.1801808131    2.5446307741
H       -3.2667644922   -1.9500150060   -0.5611266865
H       -3.1983905885    0.8705423990    3.5254637781
H       -1.1074914053   -1.2306380592    0.3966046548
H       -0.0281058126    2.3087567405    4.1572570312
H       -1.2229049091    1.0830129520    4.9077489799
H        1.2535618858    1.8321512327    1.8056618437
H        0.7602180727    0.4351470255    0.6655468225
H       -5.7593956483   -0.4869649578   -1.6480291563
H       -6.3947315109    0.5864344214   -0.3757416504
H       -7.3876042966   -0.7618835161   -0.9800668625
H        1.0031191207   -1.1858007558    3.8351610470
H       -0.7187511424   -1.6325469075    3.9656745678
H        0.1660690759   -1.8967396666    2.4312998919
27   

C       -4.4381840824   -0.1044271418    2.1163041616
C       -3.2957234790   -1.2187368276    0.3057521522
C       -3.2118800699    0.2650099968    2.6719509279
C       -2.0647071049   -0.8327949421    0.8531126891
C       -4.4952186106   -0.8308238447    0.9190062281
C       -2.0084843257   -0.0931410727    2.0483278643
C       -0.5688465377    1.3602510609    4.1262905096
C        0.6429073929    1.0032943941    1.6199713850
C       -5.8240149354   -1.2863909270    0.3672960829
C       -6.3018510717   -0.6052973810   -0.8974944316
C        0.0479126937   -1.2375324159    3.2424054318
O       -6.5890047849   -1.9668725894    1.0367801354
S       -0.4109104493    0.4383317838    2.7610669879
H       -5.3590100411    0.1686395588    2.6218693147
H       -3.3141639050   -1.8101209143   -0.6034179828
H       -3.1990291458    0.8418353971    3.5920557017
H       -1.1467803419   -1.1120610734    0.3452939452
H       -0.0126385514    2.2835118138    4.2170121718
H       -1.2071692352    1.0404294071    4.9384707032
H        1.2400487988    1.8794962548    1.8353431080
H        0.7260718333    0.5240407696    0.6549388874
H       -5.8036616274   -1.0440857018   -1.7654164961
H       -6.0749175899    0.4633143813   -0.8545389028
H       -7.3828194310   -0.7332312785   -1.0039125190
H        1.0038133369   -1.1961551480    3.7682497931
H       -0.7170570014   -1.6439616408    3.9067474561
H        0.1475043231   -1.8616312181    2.3535725019
27   

C       -4.4480313643   -0.0620223076    2.1443858620
C       -3.3335113577   -1.1196901758    0.2851788194
C       -3.2141372740    0.2880609106    2.6950248000
C       -2.0943823960   -0.7526114046    0.8277437861
C       -4.5260980413   -0.7493738575    0.9242020106
C       -2.0202011921   -0.0515504098    2.0446661882
C       -0.5494909692    1.3308138984    4.1502096752
C        0.6273923335    1.0554958223    1.6170612435
C       -5.8642697420   -1.1891262629    0.3924812833
C       -6.2258831995   -0.7560313169   -1.0135567274
C        0.0510711188   -1.2359085732    3.1728473482
O       -6.7240953041   -1.6373106147    1.1391851991
S       -0.4124949879    0.4550808852    2.7527487321
H       -5.3609142455    0.1964706866    2.6721075007
H       -3.3612015811   -1.6831870206   -0.6411452593
H       -3.1886825776    0.8352885321    3.6327869871
H       -1.1837620801   -1.0169434887    0.2991995231
H        0.0111692906    2.2486791227    4.2650042730
H       -1.1788758923    0.9860186138    4.9591527470
H        1.2302708321    1.9221845303    1.8538968730
H        0.6950469718    0.6096360057    0.6349770111
H       -5.7534082637   -1.4207887353   -1.7406724237
H       -5.8869628714    0.2687972133   -1.1871279925
H       -7.3106069737   -0.7959524148   -1.1477624354
H        1.0142873190   -1.2121484238    3.6863097293
H       -0.7048795773   -1.6630513474    3.8345121409
H        0.1375948740   -1.8308812938    2.2629546668
27   

C       -4.4334811788   -0.0575019439    2.2242605188
C       -3.3602632500   -1.0355993572    0.3005023671
C       -3.1888904553    0.2789029638    2.7582881946
C       -2.1101696655   -0.6824115785    0.8274367186
C       -4.5415354679   -0.7020477168    0.9814922049
C       -2.0096338221   -0.0290588951    2.0682190250
C       -0.4957502161    1.2915108724    4.1834984641
C        0.6289612510    1.0926854606    1.6192393595
C       -5.8945311045   -1.1144417613    0.4730791262
C       -6.1818128733   -0.9302841964   -1.0044203437
C        0.0832440599   -1.2438775901    3.1171425785
O       -6.8095676264   -1.3682998789    1.2457741569
S       -0.3880566802    0.4588058769    2.7574746464
H       -5.3327793464    0.1815840453    2.7838615583
H       -3.4017450281   -1.5611554923   -0.6471804877
H       -3.1444450686    0.7919700811    3.7144683444
H       -1.2111264890   -0.9198520236    0.2672269811
H        0.0680067515    2.2052723459    4.3147096365
H       -1.1092228742    0.9229387052    4.9941705108
H        1.2371642682    1.9517841935    1.8697529394
H        0.6764712518    0.6765981124    0.6230353002
H       -5.7837216013   -1.7768032075   -1.5692091078
H       -5.7225345207   -0.0051800818   -1.3630529442
H       -7.2617695243   -0.8716748175   -1.1676419409
H        1.0568285517   -1.2354153738    3.6111538656
H       -0.6591389681   -1.6905810418    3.7812577873
H        0.1503861138   -1.8112204746    2.1881618933
27   

C       -4.2216337700    0.7045647500    1.5244518264
C       -3.6042148101   -1.5195377934    0.8303487125
C       -2.9480645593    0.9003775807    2.0600072529
C       -2.3187746040   -1.3163980220    1.3516329622
C       -4.5683908196   -0.5000482721    0.8896741957
C       -1.9788227994   -0.1072165535    1.9824616463
C       -0.0874267813    1.6927876835    3.2841717881
C        0.8914036599   -0.3520092982    1.6291070393
C       -5.9662549242   -0.6944620598    0.3764169724
C       -6.1806562670   -1.6567428589   -0.7774529522
C       -0.5191327444   -0.9913356239    3.9953075290
O       -6.8858796481    0.0222608563    0.7505046484
S       -0.2989621335    0.1816275344    2.6438645589
H       -4.9553339493    1.5011940146    1.6035440624
H       -3.8325591989   -2.4753712233    0.3723529337
H       -2.7119327597    1.8507655814    2.5296562650
H       -1.5794404212   -2.1065169711    1.2644817080
H        0.7842758767    2.2729509455    3.0129770606
H       -0.8019462219    2.1008969918    3.9858177144
H        1.7821876769    0.2470741849    1.4936872125
H        0.7807020279   -1.2765571527    1.0806673622
H       -6.2185450780   -2.6831241136   -0.4039114400
H       -5.3703618393   -1.5600577127   -1.5050807956
H       -7.1261120116   -1.4279167195   -1.2777512272
H        0.3794982472   -0.9758198747    4.6151661763
H       -1.3812018881   -0.6927031949    4.5947543428
H       -0.6667404567   -1.9938920028    3.5922853105
27   

C       -4.2140608125    0.7387815456    1.5172960832
C       -3.5870721371   -1.4616152696    0.7584611866
C       -2.9455749741    0.9197275052    2.0695278093
C       -2.3065550060   -1.2719375949    1.2969891892
C       -4.5563186571   -0.4484044176    0.8468584952
C       -1.9743560363   -0.0834913278    1.9694256665
C       -0.0977095290    1.6763229069    3.3458965901
C        0.8995084277   -0.3082256094    1.6295155257
C       -5.9440993839   -0.6186593543    0.2998003450
C       -6.2119255793   -1.7638552265   -0.6597871918
C       -0.5264896114   -1.0312605294    3.9615430465
O       -6.8295199944    0.1917224370    0.5426074955
S       -0.3001881073    0.1875941543    2.6524067285
H       -4.9463081669    1.5352134918    1.6107966570
H       -3.7985322003   -2.4035655260    0.2657607469
H       -2.7143238902    1.8563933107    2.5683035323
H       -1.5638268594   -2.0562736320    1.1888407086
H        0.7749067676    2.2672353193    3.1022243458
H       -0.8193828784    2.0588727054    4.0545777124
H        1.7899811418    0.2969772212    1.5221190066
H        0.7951381053   -1.2131629423    1.0481135326
H       -6.2148469688   -2.7127945214   -0.1173962500
H       -5.4496538064   -1.7862966464   -1.4431370650
H       -7.1890921857   -1.6270012599   -1.1321165046
H        0.3675536568   -1.0341098575    4.5881816842
H       -1.3938604260   -0.7556719212    4.5643485913
H       -0.6678249860   -2.0199686481    3.5235895449
27   

C       -4.2221695301    0.7695378271    1.4980511660
C       -3.5737315108   -1.4015995069    0.6760367570
C       -2.9613108660    0.9394712019    2.0708923499
C       -2.3009253215   -1.2223574524    1.2361144992
C       -4.5521734655   -0.3994649591    0.7899398255
C       -1.9833866324   -0.0547701449    1.9505198406
C       -0.1275183782    1.6757984724    3.3911397632
C        0.8948110804   -0.2586018525    1.6326739117
C       -5.9256826855   -0.5466895307    0.2006526628
C       -6.2678760456   -1.8241180250   -0.5443273111
C       -0.5508313448   -1.0488984593    3.9303062600
O       -6.7691634034    0.3332911076    0.3185546040
S       -0.3169499957    0.2052307130    2.6564487246
H       -4.9572179717    1.5618968712    1.6034473477
H       -3.7665863668   -2.3246797086    0.1420827321
H       -2.7403098486    1.8621952438    2.5994059173
H       -1.5511717555   -1.9970265985    1.1084179653
H        0.7448922763    2.2763902097    3.1715004517
H       -0.8576680514    2.0369159794    4.1023411421
H        1.7835421170    0.3530007144    1.5498282281
H        0.8003350691   -1.1483688334    1.0266896282
H       -6.1708774095   -2.6853655241    0.1217809313
H       -5.6071015800   -1.9439008417   -1.4069094101
H       -7.3006188803   -1.7758220783   -0.9018778622
H        0.3377557329   -1.0659446821    4.5644375270
H       -1.4242770752   -0.7920290748    4.5325740279
H       -0.6852844624   -2.0258005588    3.4645543494
27   

C       -4.1911900202    0.7779267096    1.4568358290
C       -3.5194672300   -1.3742824164    0.6032284418
C       -2.9428058982    0.9388791282    2.0588590989
C       -2.2586034086   -1.2034484532    1.1921545593
C       -4.5042528527   -0.3794008216    0.7230724694
C       -1.9596510686   -0.0503932014    1.9379434934
C       -0.1440820371    1.6508983304    3.4619667687
C        0.9249775791   -0.2172725223    1.6606318738
C       -5.8567386907   -0.5116397673    0.0845874935
C       -6.2946459247   -1.8770409638   -0.4136132894
C       -0.5480383257   -1.0931774249    3.9091987815
O       -6.6435661727    0.4262888808    0.0575027735
S       -0.3073289238    0.2023520975    2.6788378728
H       -4.9292671523    1.5680116694    1.5580529109
H       -3.6992368611   -2.2806132529    0.0366168631
H       -2.7342716527    1.8521199474    2.6085324462
H       -1.5026704700   -1.9712597224    1.0596576221
H        0.7256948261    2.2662894716    3.2752874879
H       -0.8893235823    1.9828263170    4.1717392653
H        1.8089174821    0.4048377134    1.6115442284
H        0.8481265366   -1.0873740416    1.0243383199
H       -6.1083761439   -2.6363321631    0.3504460792
H       -5.7537682382   -2.1310371092   -1.3288980850
H       -7.3663271987   -1.8623080988   -0.6326193519
H        0.3301219092   -1.1200933181    4.5573546807
H       -1.4342053504   -0.8646105107    4.5042106333
H       -0.6632927500   -2.0565934471    3.4113569784
27   

C       -4.2158033549    0.7548845198    1.4525685923
C       -3.5019315319   -1.3574016490    0.5359401149
C       -2.9774946260    0.9122972808    2.0764384298
C       -2.2512601213   -1.1902764719    1.1468489562
C       -4.5035223185   -0.3835481669    0.6811245663
C       -1.9789009213   -0.0593426422    1.9358818072
C       -0.2058088550    1.6155307019    3.5379036979
C        0.9115913216   -0.1767291378    1.6893596180
C       -5.8368665386   -0.5055728006    0.0008454661
C       -6.3846560537   -1.8965271660   -0.2626681008
C       -0.5756224237   -1.1467780798    3.8886536259
O       -6.5558024711    0.4714076548   -0.1657904674
S       -0.3391726695    0.1920326595    2.7047545792
H       -4.9654445634    1.5326320532    1.5636685398
H       -3.6689218334   -2.2406505485   -0.0703472917
H       -2.7878360077    1.8104302167    2.6569702163
H       -1.4821854605   -1.9414864814    0.9961027858
H        0.6580546982    2.2480118347    3.3836262234
H       -0.9648449415    1.9140607132    4.2478613624
H        1.7877281072    0.4580180781    1.6730787978
H        0.8544742697   -1.0254085705    1.0227644176
H       -6.1614342578   -2.5567484525    0.5796077569
H       -5.9421069709   -2.3031292020   -1.1755553492
H       -7.4702189277   -1.8478004704   -0.3881413347
H        0.2954522277   -1.1831746832    4.5458448402
H       -1.4716020646   -0.9502017415    4.4803558967
H       -0.6716161860   -2.0945561546    3.3577932180
27   

C       -4.2040445000    0.7715039824    1.4036708261
C       -3.4455602006   -1.3090920752    0.4516645659
C       -2.9792893498    0.9299349207    2.0538989624
C       -2.2080269315   -1.1409136021    1.0882430546
C       -4.4628448900   -0.3540081309    0.6051976206
C       -1.9653751871   -0.0256486810    1.9091493844
C       -0.2484372930    1.6282069538    3.5923705755
C        0.9305660208   -0.0807648406    1.7040710687
C       -5.7763609643   -0.4697080041   -0.1167952431
C       -6.4578904304   -1.8245601312   -0.1369137747
C       -0.5686666268   -1.1500628300    3.8476748172
O       -6.3977304429    0.5277958817   -0.4593360077
S       -0.3422713902    0.2307911952    2.7110301074
H       -4.9653600424    1.5381282324    1.5120725236
H       -3.5972715200   -2.1759741132   -0.1820434487
H       -2.8108320709    1.8176177863    2.6566438993
H       -1.4259583298   -1.8773403529    0.9316322143
H        0.6060133008    2.2807543029    3.4731948775
H       -1.0243071486    1.8896451228    4.2987379667
H        1.7952766803    0.5693769825    1.7234323631
H        0.8984777133   -0.9063032566    1.0073849170
H       -6.3134585182   -2.3313096152    0.8209279329
H       -6.0414512769   -2.4380184755   -0.9396319524
H       -7.5306682753   -1.6975362954   -0.3084507369
H        0.2935767822   -1.1904332138    4.5161938160
H       -1.4767389617   -0.9904394571    4.4319685158
H       -0.6375949777   -2.0819286360    3.2853959839
27   

C       -4.1849183961    0.7088489991    1.3707623697
C       -3.3570585118   -1.3266086806    0.3753639737
C       -2.9762020064    0.8780323312    2.0482840058
C       -2.1359379183   -1.1468191222    1.0395744979
C       -4.3983977144   -0.4013977464    0.5408214817
C       -1.9367082581   -0.0496617190    1.8966708039
C       -0.2924424010    1.5935734360    3.6617053411
C        0.9641303449   -0.0292271903    1.7475398795
C       -5.6904743889   -0.5369377405   -0.2206793346
C       -6.4898002691   -1.8063875157   -0.0059985335
C       -0.5487223856   -1.1971452223    3.8279526369
O       -6.2126252151    0.4327372171   -0.7539259592
S       -0.3355678796    0.2220325590    2.7368243435
H       -4.9672574830    1.4536813404    1.4796673345
H       -3.4805929097   -2.1761708877   -0.2875248500
H       -2.8393324069    1.7528325163    2.6772879895
H       -1.3328808438   -1.8588194152    0.8763674986
H        0.5491947715    2.2682523439    3.5806494072
H       -1.0887313235    1.8160192955    4.3586106152
H        1.8134274224    0.6386980300    1.8053634596
H        0.9647348120   -0.8325830983    1.0246459872
H       -6.4254090428   -2.1164534154    1.0403273819
H       -6.0994472346   -2.6029942163   -0.6439386456
H       -7.5397523476   -1.6317862043   -0.2578236533
H        0.3016486381   -1.2364100798    4.5115758550
H       -1.4712413776   -1.0772013996    4.3989181421
H       -0.5837831367   -2.1132576426    3.2373479021
27   

C       -4.1889378008    0.6730719442    1.3286181233
C       -3.3027936965   -1.3228581968    0.3001728804
C       -2.9933359303    0.8519800128    2.0272102898
C       -2.0950316452   -1.1320470796    0.9850631779
C       -4.3627136529   -0.4216210022    0.4710180611
C       -1.9318098637   -0.0502488494    1.8694918654
C       -0.3537704325    1.5774736542    3.7079823452
C        0.9695466520    0.0524981641    1.7590731585
C       -5.6446736539   -0.5849912032   -0.3096826779
C       -6.5731713647   -1.6943565590    0.1375361557
C       -0.5342689521   -1.2223752893    3.7814003600
O       -6.0404368667    0.2880234031   -1.0693285727
S       -0.3486577327    0.2364216993    2.7384134366
H       -4.9893878453    1.3972472233    1.4424023388
H       -3.4031137064   -2.1596712213   -0.3827574676
H       -2.8833088777    1.7145160908    2.6780666645
H       -1.2748554169   -1.8231241599    0.8171855890
H        0.4711114642    2.2756802279    3.6610592247
H       -1.1648945728    1.7562561994    4.4003091078
H        1.8007654519    0.7390462930    1.8511407536
H        0.9992665353   -0.7246662755    1.0086224809
H       -6.5846944528   -1.7548871474    1.2289963073
H       -6.2338743778   -2.6486468338   -0.2726137738
H       -7.5887395634   -1.4950261422   -0.2162180603
H        0.3085280999   -1.2591422306    4.4744925455
H       -1.4667297009   -1.1471152289    4.3437326318
H       -0.5352453543   -2.1199306450    3.1619723270
27   

C       -4.2082853675    0.6010467312    1.2988818706
C       -3.2460152111   -1.3239299654    0.2012285185
C       -3.0242274585    0.7910894351    2.0146397686
C       -2.0513021868   -1.1209179505    0.9046747612
C       -4.3294766277   -0.4541858033    0.3850354507
C       -1.9309735147   -0.0676063822    1.8299021829
C       -0.4193108542    1.5464611926    3.7343620789
C        0.9679328308    0.1183141558    1.7565826065
C       -5.6149615507   -0.6744051349   -0.3797598735
C       -6.6451603233   -1.5605455924    0.2877461745
C       -0.5229359122   -1.2584729491    3.7212688277
O       -5.7670376712   -0.2657231204   -1.5219225535
S       -0.3656205637    0.2358927936    2.7250677253
H       -5.0360924168    1.2866363322    1.4466056369
H       -3.3206370428   -2.1403004636   -0.5096693297
H       -2.9488696080    1.6269061628    2.7041257643
H       -1.2093479348   -1.7811261829    0.7210923508
H        0.3858070080    2.2687236689    3.7170317455
H       -1.2414445576    1.6810155295    4.4236312274
H        1.7786363519    0.8243740094    1.8788355592
H        1.0279198576   -0.6351579144    0.9840359787
H       -7.1074673016   -1.0256869658    1.1212526837
H       -6.1688190272   -2.4697461131    0.6637445301
H       -7.4199365045   -1.8374338402   -0.4329190911
H        0.3139788296   -1.2948996617    4.4214704217
H       -1.4622941811   -1.2247009770    4.2760496529
H       -0.4948174598   -2.1362471088    3.0746510151
27   

C       -4.2110875884    0.5283436585    1.3014844818
C       -3.1639766785   -1.3300375306    0.1640888181
C       -3.0404331743    0.7458452376    2.0317372900
C       -1.9839239558   -1.0983274009    0.8826966965
C       -4.2782694235   -0.5000400064    0.3514471683
C       -1.9122052599   -0.0636408924    1.8338645286
C       -0.4840412947    1.5541626864    3.7977747700
C        0.9770661415    0.2409635813    1.7940250078
C       -5.5526347132   -0.7931453204   -0.4023735752
C       -6.6777805187   -1.4133370126    0.4002738803
C       -0.4731180549   -1.2516159756    3.7047215280
O       -5.5776656508   -0.8106532348   -1.6251078121
S       -0.3680880746    0.2758978843    2.7527350289
H       -5.0689396628    1.1706972046    1.4694497511
H       -3.2066918350   -2.1357163611   -0.5620541671
H       -3.0041495959    1.5628168830    2.7465150187
H       -1.1170827299   -1.7235769731    0.6927408995
H        0.2906345266    2.3091222279    3.8078763410
H       -1.3158787278    1.6345795260    4.4838246165
H        1.7570959291    0.9756911382    1.9436828494
H        1.0742449067   -0.4873573911    1.0013466904
H       -7.2249058571   -0.6326192323    0.9343163204
H       -6.2734820093   -2.1278838868    1.1221129796
H       -7.3666240094   -1.9375756163   -0.2682052946
H        0.3582031664   -1.2741359219    4.4121349811
H       -1.4180565872   -1.2721687924    4.2505888324
H       -0.4031747714   -2.1087346843    3.0339801433
27   

C       -4.2214548940    0.4386142878    1.3291736681
C       -3.1124549210   -1.3531654813    0.1398591527
C       -3.0550987432    0.6788503570    2.0595355782
C       -1.9386246390   -1.0973500069    0.8599554733
C       -4.2548099593   -0.5660383003    0.3514405747
C       -1.8994450890   -0.0843650990    1.8361023179
C       -0.5179416765    1.5383999264    3.8281542679
C        0.9770095924    0.3175410110    1.7912996996
C       -5.5109527480   -0.9022391278   -0.4071604098
C       -6.7359247782   -1.2563795636    0.4126320418
C       -0.4141408688   -1.2640396141    3.6755605769
O       -5.4753180032   -1.1661990055   -1.6015909296
S       -0.3635207235    0.2863340025    2.7566355096
H       -5.1000810584    1.0452928133    1.5200414272
H       -3.1297103437   -2.1437912443   -0.6040754130
H       -3.0441016046    1.4774754444    2.7955529186
H       -1.0515165597   -1.6874515753    0.6519821895
H        0.2296568647    2.3199724480    3.8490477439
H       -1.3472871427    1.5751393884    4.5209002680
H        1.7313520120    1.0764685004    1.9514156872
H        1.0960501850   -0.3920941825    0.9847538552
H       -7.2494104935   -0.3438508349    0.7251110484
H       -6.4423340197   -1.8273028454    1.2974924609
H       -7.4216097061   -1.8625206694   -0.1862765359
H        0.4212379707   -1.2751319230    4.3784471617
H       -1.3550229939   -1.3270627853    4.2251709544
H       -0.3203671613   -2.1037329346    2.9859103390
27   

C       -4.2961854377    0.3516051651    1.3414197478
C       -3.1272404915   -1.3842180745    0.1243676548
C       -3.1325875049    0.6314711328    2.0621812061
C       -1.9577015845   -1.0869059087    0.8350603137
C       -4.3010067146   -0.6484120983    0.3566431149
C       -1.9499288086   -0.0832556773    1.8212024348
C       -0.6203621026    1.5624661060    3.8290464742
C        0.9055620582    0.4437473345    1.7570603682
C       -5.5420513108   -1.0362612518   -0.3973081660
C       -6.8409699635   -1.1209980262    0.3814338932
C       -0.3964272793   -1.2301037132    3.6259205691
O       -5.4769442032   -1.5054381797   -1.5262965400
S       -0.4223255057    0.3368785699    2.7343156665
H       -5.1934962838    0.9241657273    1.5491534735
H       -3.1166212137   -2.1705046832   -0.6244915720
H       -3.1456419833    1.4230327970    2.8057794127
H       -1.0498417738   -1.6390313113    0.6128600098
H        0.0925732028    2.3755598835    3.8568875092
H       -1.4432169066    1.5503186794    4.5303740658
H        1.6276687395    1.2320934668    1.9234803499
H        1.0472213942   -0.2462094241    0.9371848685
H       -7.2846611914   -0.1265104055    0.4728019498
H       -6.6555431247   -1.5299471519    1.3782106593
H       -7.5443240759   -1.7758169815   -0.1409503862
H        0.4443740951   -1.2163566825    4.3222566194
H       -1.3290283271   -1.3447327706    4.1812955534
H       -0.2710830246   -2.0527577311    2.9209106224
27   

C       -4.2787099331    0.2829968574    1.3649739627
C       -3.0656867710   -1.3854433415    0.0992538722
C       -3.1222108215    0.5729420278    2.0928883754
C       -1.9038174199   -1.0768772917    0.8177262457
C       -4.2621715046   -0.6938405679    0.3547484390
C       -1.9217278666   -0.1029498181    1.8324563932
C       -0.6370783153    1.5197891093    3.8864743392
C        0.9174272346    0.5027845179    1.7836415050
C       -5.4874695608   -1.0830761863   -0.4210336051
C       -6.8421701634   -0.9075195046    0.2405136241
C       -0.3378425120   -1.2600004722    3.6038929347
O       -5.4039916289   -1.6947983839   -1.4787118318
S       -0.4056316543    0.3309765118    2.7581762715
H       -5.1855495414    0.8324779363    1.5917373947
H       -3.0296861203   -2.1498159325   -0.6712359054
H       -3.1552631834    1.3432603859    2.8578798886
H       -0.9816522543   -1.5975110323    0.5790379385
H        0.0515592813    2.3525796256    3.9355351532
H       -1.4572867004    1.4637758332    4.5887942588
H        1.6160620142    1.3075085684    1.9705822087
H        1.0787708407   -0.1611992191    0.9461537438
H       -7.1632249153    0.1339905996    0.1582845622
H       -6.7879511446   -1.1927765037    1.2944865461
H       -7.5804676030   -1.5446947678   -0.2549329711
H        0.5021870917   -1.2441146413    4.3011087495
H       -1.2671313392   -1.4156831919    4.1548435038
H       -0.1906217762   -2.0581881124    2.8753668442
27   

C       -4.2962966200    0.1854995286    1.4149333758
C       -3.0580998122   -1.4288913767    0.1066182327
C       -3.1352459398    0.5018293887    2.1242748719
C       -1.8925465383   -1.0932515208    0.8066048673
C       -4.2734160238   -0.7826666104    0.3939489345
C       -1.9203058216   -0.1332886312    1.8335247486
C       -0.6487517806    1.5038524467    3.8829615432
C        0.8951090040    0.5650862136    1.7364877380
C       -5.4960897906   -1.1869897160   -0.3779003455
C       -6.8562215643   -0.7616630620    0.1442899676
C       -0.2655901775   -1.2622488675    3.5577418204
O       -5.4240101236   -1.9285553204   -1.3501055444
S       -0.4007901766    0.3367468704    2.7356281019
H       -5.2095020201    0.7107382648    1.6702787915
H       -3.0095150115   -2.1816702403   -0.6745110133
H       -3.1768318454    1.2622689546    2.8986913642
H       -0.9596124323   -1.5817846825    0.5431927600
H        0.0112552466    2.3597662735    3.9273515637
H       -1.4508240581    1.4108175304    4.6021223244
H        1.5688627342    1.3919222976    1.9181944300
H        1.0624352888   -0.0842776789    0.8887804043
H       -6.9989641798    0.3098711660   -0.0178041538
H       -6.9398018614   -0.9891059948    1.2102686133
H       -7.6419545548   -1.3049516634   -0.3887357979
H        0.5870544639   -1.2286495375    4.2388155689
H       -1.1784591245   -1.4550397985    4.1242173591
H       -0.1074888805   -2.0456091773    2.8155245484
27   

C       -4.3245497374    0.0955211237    1.5115962547
C       -3.0507774419   -1.4597438246    0.1661995464
C       -3.1613644166    0.4574027478    2.1949863505
C       -1.8842513739   -1.0781735921    0.8406441734
C       -4.2860644653   -0.8679406952    0.4859563786
C       -1.9280762718   -0.1243608084    1.8725833913
C       -0.6794621516    1.5609069611    3.8959890686
C        0.8525855072    0.6891753924    1.7130506281
C       -5.5055591273   -1.3108677551   -0.2699716271
C       -6.8432210348   -0.6783921397    0.0675495393
C       -0.1909589563   -1.1878534282    3.5560883776
O       -5.4431344134   -2.1685683663   -1.1422999192
S       -0.4090799098    0.4057992886    2.7415530362
H       -5.2515262086    0.5799818654    1.7956673353
H       -2.9876163590   -2.2059582663   -0.6201593814
H       -3.2167813751    1.2116489164    2.9745686478
H       -0.9380251341   -1.5258107802    0.5530787323
H       -0.0562840509    2.4446175035    3.9254766822
H       -1.4590185179    1.4330005540    4.6343147918
H        1.4938776557    1.5445324054    1.8795868139
H        1.0288904902    0.0467064847    0.8619316241
H       -6.8021414997    0.4001161760   -0.1061359753
H       -7.0993656871   -0.8766873748    1.1115487164
H       -7.6236357764   -1.1043599255   -0.5697976043
H        0.6746343791   -1.1211123361    4.2181081763
H       -1.0824418207   -1.4184599200    4.1421820911
H       -0.0181996026   -1.9628257843    2.8083421214
