26   
Generated by ForceBalance from scan.xyz: Frame 1 of 24
C       -3.0794231846   -0.0595273747    1.6477230105
C        0.0923758148    0.5631435222   -0.0895203757
C       -3.5175815766    0.3667763253    3.0392123209
C       -2.0963545243    1.0131902195   -1.2420801956
C        2.2066278990    0.4604489941   -1.3017974020
C        1.0369010215   -1.8025967509   -2.6107135417
C       -1.3921814104    0.2116643970   -0.1288483446
N       -1.9371038921    0.5223792399    1.1839606275
N        0.9408444050   -0.1643518350   -0.9098194455
O       -3.7206677709   -0.8788121816    0.9854880310
O        0.5309889867    1.4268239563    0.6700277352
O        0.2416249382   -0.7953478504   -1.9828458250
H       -4.5081595125    0.8249760049    2.9702374645
H       -3.6115222312   -0.5249796474    3.6645471636
H       -2.8312322076    1.0704700736    3.5184555494
H       -1.9741503991    2.0870341616   -1.0693687822
H       -3.1609471402    0.7693711018   -1.2246011036
H       -1.6909484421    0.7581667472   -2.2240374148
H        2.9805765406   -0.2965557439   -1.4408116866
H        2.4973482547    1.1248956000   -0.4894733947
H        2.0799715643    1.0409137231   -2.2235732684
H        0.3469072265   -2.3196427915   -3.2799783360
H        1.4353084310   -2.5077784762   -1.8719476828
H        1.8533736865   -1.3701927037   -3.1987841424
H       -1.5295805621   -0.8534815740   -0.3173436527
H       -1.4213614632    1.1957690958    1.7383518479
26   
Generated by ForceBalance from scan.xyz: Frame 2 of 24
C       -3.0476808356   -0.0986838745    1.6133501756
C        0.1053367195    0.6076651359   -0.1225699823
C       -3.4858997549    0.2845722926    3.0172120358
C       -2.0959507411    1.0656408943   -1.2508255282
C        2.2273313088    0.5308923167   -1.3464140612
C        0.9483320003   -1.8747484950   -2.4921043381
C       -1.3764436335    0.2428455061   -0.1636204118
N       -1.9160300002    0.5115651639    1.1603413095
N        0.9491071017   -0.0783723043   -0.9776336791
O       -3.6797354273   -0.9098642085    0.9323491668
O        0.5427102837    1.4495637926    0.6620597424
O        0.2700351919   -0.6883883038   -2.0649298192
H       -4.4826244626    0.7314059276    2.9639308600
H       -3.5658096835   -0.6245688644    3.6190085723
H       -2.8069427664    0.9843489617    3.5124205503
H       -1.9829436698    2.1358294246   -1.0513209307
H       -3.1581000144    0.8112708233   -1.2331283729
H       -1.6946200203    0.8403085328   -2.2417431005
H        2.9872582681   -0.2390233717   -1.4956409062
H        2.5276691866    1.1758601924   -0.5217653787
H        2.1149773002    1.1251856525   -2.2606138804
H        0.2682935963   -2.3442287730   -3.2051729227
H        1.1277676394   -2.5468069733   -1.6457769673
H        1.8931852121   -1.6401715435   -2.9944654418
H       -1.5049953215   -0.8182902874   -0.3795216856
H       -1.4056056784    1.1769668814    1.7292959572
26   
Generated by ForceBalance from scan.xyz: Frame 3 of 24
C       -3.0094166871   -0.1393823801    1.5763492360
C        0.1096447918    0.6845030757   -0.1591293343
C       -3.4474169133    0.1981535768    2.9918030677
C       -2.1020526388    1.1307823660   -1.2733621923
C        2.2401901512    0.6416651868   -1.3821413140
C        0.8112030516   -1.9001385291   -2.3468043251
C       -1.3665116427    0.2965513041   -0.2063582228
N       -1.9081995194    0.5250060586    1.1240712269
N        0.9595164049    0.0306237482   -1.0307862014
O       -3.6164351740   -0.9607802965    0.8847923315
O        0.5353092830    1.5169345019    0.6416008018
O        0.3078416764   -0.5742439464   -2.1320907044
H       -4.4628939024    0.6025460469    2.9575846572
H       -3.4814880380   -0.7245846879    3.5770545466
H       -2.7935429887    0.9173357115    3.4928889448
H       -2.0042862620    2.1981737831   -1.0523342518
H       -3.1604507086    0.8607348973   -1.2577249855
H       -1.7006483306    0.9316474940   -2.2699091072
H        2.9677139040   -0.1337251499   -1.6316719079
H        2.5891791547    1.1963374796   -0.5122687047
H        2.1194115230    1.3220534191   -2.2326164271
H        0.2080499117   -2.3019945851   -3.1630023790
H        0.6861834349   -2.5123902802   -1.4475350074
H        1.8647969616   -1.8848485683   -2.6464069484
H       -1.4805390943   -0.7615075210   -0.4449112673
H       -1.4084664886    1.1863531955    1.7071885138
26   
Generated by ForceBalance from scan.xyz: Frame 4 of 24
C       -2.9411590084   -0.2026589263    1.5264854694
C        0.1586337812    0.6854494029   -0.2103065552
C       -3.3787041848    0.1101289199    2.9476136872
C       -2.0603174754    1.1317024037   -1.3080929044
C        2.2944026732    0.6594810894   -1.4481133079
C        0.7015320497   -1.9657882383   -2.2054501838
C       -1.3150585988    0.2851767186   -0.2579318449
N       -1.8521422334    0.4841416930    1.0783693951
N        1.0013736970    0.0750055639   -1.1116076427
O       -3.5381968202   -1.0244948690    0.8265382042
O        0.5825542743    1.5016874414    0.6091662999
O        0.3758851707   -0.5664411099   -2.2008644259
H       -4.3960289911    0.5105999821    2.9210888330
H       -3.4080080067   -0.8218561414    3.5181716460
H       -2.7275050065    0.8244854525    3.4589446374
H       -1.9691486816    2.1959636807   -1.0700779694
H       -3.1169084534    0.8543066350   -1.2945615627
H       -1.6598966480    0.9513722227   -2.3087409039
H        2.9912725307   -0.1313180878   -1.7357042907
H        2.6687852193    1.1695158840   -0.5613466806
H        2.1920647786    1.3749245145   -2.2717863838
H        0.1782255700   -2.3772162649   -3.0706013648
H        0.3504915540   -2.4486681247   -1.2874847782
H        1.7801234081   -2.1203687989   -2.3190478431
H       -1.4265904146   -0.7692500155   -0.5131038201
H       -1.3585778719    1.1447731974    1.6677365481
26   
Generated by ForceBalance from scan.xyz: Frame 5 of 24
C       -2.1639021110   -0.4358789144    1.3234482450
C        0.1202143562    0.9937801235   -0.4139888940
C       -2.6710076569   -0.2941538360    2.7469334807
C       -1.9134598722    1.8736748477   -1.5717060253
C        2.4370152450    0.4805693355   -1.1455225649
C        0.4760101317   -1.9856040384   -1.6957117125
C       -1.3761059286    0.7558346006   -0.6728596418
N       -2.0731282208    0.7319698451    0.6068997502
N        1.0113871441    0.2053988725   -1.0861025443
O       -1.8732837489   -1.5341204404    0.8449773926
O        0.4886244467    1.8613799652    0.3817115259
O        0.5336719459   -0.6063228467   -2.1271661991
H       -3.4481560730   -1.0419667959    2.9200336381
H       -1.8462603517   -0.5080410674    3.4336884638
H       -3.0678525443    0.7000341137    2.9690281204
H       -1.7479458269    2.8539883480   -1.1136601827
H       -2.9852671867    1.7344828073   -1.7381468341
H       -1.4033850083    1.8573713648   -2.5394030462
H        3.0018110589   -0.4508122788   -1.0469746254
H        2.6800225364    1.1447142312   -0.3166072447
H        2.6943669955    0.9618614316   -2.0956216618
H        0.1036112426   -2.5341091013   -2.5635457520
H       -0.2064146277   -2.0961922205   -0.8483087206
H        1.4763781755   -2.3477999928   -1.4336896997
H       -1.5454963066   -0.2080275381   -1.1423922501
H       -2.0405735481    1.5959274303    1.1363830325
26   
Generated by ForceBalance from scan.xyz: Frame 6 of 24
C       -2.1522287521   -0.4278482460    1.3533633723
C        0.1021849624    0.9924008713   -0.3380347380
C       -2.6894802364   -0.2902182619    2.7654728530
C       -1.8909003687    1.9042971618   -1.5389777243
C        2.4442465863    0.5755331063   -1.0736087970
C        0.5133165863   -1.8578527624   -1.6409831053
C       -1.3891667578    0.7665413172   -0.6429417258
N       -2.1287872006    0.7274848478    0.6107420462
N        1.0078469288    0.3857962908   -1.1564527264
O       -1.7772862997   -1.5124611200    0.9032294931
O        0.4490375831    1.7527593426    0.5697797352
O        0.5725329532   -0.5015086789   -2.1477783947
H       -3.3763035468   -1.1155782853    2.9645806100
H       -1.8525363645   -0.3766142549    3.4655421040
H       -3.2002377492    0.6601020680    2.9421912687
H       -1.7325933173    2.8758727856   -1.0594774163
H       -2.9584301709    1.7776542999   -1.7397331004
H       -1.3514481431    1.8994033753   -2.4901010751
H        2.9467515944   -0.3439779037   -0.7533099924
H        2.6294460953    1.3586269054   -0.3388423044
H        2.8304355264    0.8776144953   -2.0516614732
H        0.1398043723   -2.4495213379   -2.4792861101
H       -0.1678825992   -1.9281105555   -0.7886336367
H        1.5138384195   -2.2078276015   -1.3637454864
H       -1.5502635140   -0.1855315729   -1.1397665638
H       -2.1432969429    1.5976975803    1.1307245058
26   
Generated by ForceBalance from scan.xyz: Frame 7 of 24
C       -2.1601501561   -0.4480521815    1.3244387850
C        0.1313973849    0.8973980367   -0.3837901702
C       -2.6891237510   -0.2973269665    2.7381191488
C       -1.8388295742    1.8941844888   -1.5552984162
C        2.4498049768    0.5080499681   -1.1624816241
C        0.4759642997   -1.8681746508   -1.6165777637
C       -1.3719150849    0.7285317557   -0.6739991662
N       -2.1042611219    0.7063544292    0.5828509786
N        1.0061271988    0.4208754394   -1.3233867864
O       -1.8207279425   -1.5429683381    0.8711616421
O        0.5166334836    1.5589097793    0.5817142164
O        0.5785867857   -0.5602735202   -2.2338896322
H       -3.4286750356   -1.0793097267    2.9238887296
H       -1.8605777117   -0.4501203269    3.4365062573
H       -3.1378670218    0.6808198556    2.9304343845
H       -1.6420477935    2.8548893882   -1.0677283864
H       -2.9121579074    1.8083072746   -1.7463764996
H       -1.3077592106    1.8790581760   -2.5103983310
H        2.8540902675   -0.3478512888   -0.6085830887
H        2.6716627357    1.4193207926   -0.6077234512
H        2.9041283344    0.5513688842   -2.1545760755
H        0.0995887989   -2.5153744787   -2.4113594052
H       -0.2189989754   -1.8623642556   -0.7730794419
H        1.4630867733   -2.2211500135   -1.2975619381
H       -1.5727309512   -0.2096062318   -1.1837323829
H       -2.0927666249    1.5752070815    1.1047074392
26   
Generated by ForceBalance from scan.xyz: Frame 8 of 24
C       -2.2602425039   -0.4456505858    1.2698310471
C        0.1809665693    0.8768606403   -0.4225552165
C       -2.7489049826   -0.3092212620    2.6998664834
C       -1.7850934543    1.9495065839   -1.5192268278
C        2.4621899253    0.5612115923   -1.2834877296
C        0.4412536117   -1.8656253406   -1.4701060046
C       -1.3339660613    0.7522374618   -0.6687492647
N       -2.0324790821    0.7339707798    0.6065235847
N        1.0145230099    0.4503991503   -1.4311544762
O       -2.0984324013   -1.5478393277    0.7421343827
O        0.6100698855    1.5050065507    0.5450306825
O        0.6352920330   -0.6493995584   -2.2330481297
H       -3.5884612479   -0.9909850582    2.8517176865
H       -1.9437341730   -0.6182680808    3.3736554816
H       -3.0545135214    0.7081175358    2.9582222996
H       -1.5509021777    2.8943328395   -1.0176960611
H       -2.8646872856    1.8963531514   -1.6843561773
H       -1.2768227453    1.9379903694   -2.4865575683
H        2.8740443309   -0.2256866826   -0.6399296873
H        2.6875403476    1.5295180875   -0.8373904815
H        2.9058959814    0.4940136276   -2.2782218323
H        0.2046424828   -2.6195735734   -2.2236914283
H       -0.3803436774   -1.7853715898   -0.7557219442
H        1.3666652734   -2.1470281752   -0.9539578239
H       -1.5831460436   -0.1676389820   -1.1905838280
H       -1.9046191449    1.5606412676    1.1789659745
26   
Generated by ForceBalance from scan.xyz: Frame 9 of 24
C       -2.3364099976   -0.6825334524    0.7974988702
C        0.3826535668    0.7659953441   -0.8528215050
C       -2.7629206270   -0.6834641266    2.2548750563
C       -1.7132062512    1.8141075413   -1.6840847571
C        2.6056346067    0.4337488606   -1.8113663039
C        0.5697047508   -2.0528043897   -1.3692750897
C       -1.1350081090    0.5828859625   -0.9642523591
N       -1.6865988136    0.4438759907    0.3746928555
N        1.1594838047    0.2265248672   -1.8568748803
O       -2.5840635424   -1.6325692651    0.0507791793
O        0.8557458588    1.5238532160   -0.0054789505
O        0.8604980376   -1.0587148035   -2.3793870706
H       -3.8527991508   -0.7605113347    2.2985747946
H       -2.3518690411   -1.5725789716    2.7400109566
H       -2.4469970261    0.2069442387    2.8051810726
H       -1.4802750349    2.7290695977   -1.1315459261
H       -2.7990169173    1.7106697841   -1.7601420867
H       -1.2949555244    1.8983697180   -2.6913496494
H        3.0854049697   -0.1955246202   -1.0515772429
H        2.7991306322    1.4798086236   -1.5755079874
H        3.0064680335    0.1909431062   -2.7965505344
H        0.7098031603   -3.0085545995   -1.8792351962
H       -0.4550517644   -1.9868792491   -0.9999179893
H        1.2821717934   -1.9775369996   -0.5393221063
H       -1.4050923344   -0.3081326391   -1.5242619152
H       -1.3649795800    1.1197886133    1.0574370897
26   
Generated by ForceBalance from scan.xyz: Frame 10 of 24
C       -2.3780583707   -0.6227705622    0.8467631269
C        0.4040378369    0.8260454081   -0.8845212447
C       -2.7395631299   -0.6756797318    2.3207607679
C       -1.7682422943    1.8701845921   -1.5036379455
C        2.5796516932    0.4626387709   -1.9178475592
C        0.4445803729   -2.0111541063   -1.1386403323
C       -1.1127786532    0.6207005064   -0.8900131018
N       -1.5515945106    0.4016544025    0.4809340972
N        1.1409836444    0.1997416634   -1.8709818660
O       -2.8070409552   -1.4539585600    0.0428538171
O        0.9084665568    1.6692805966   -0.1417233322
O        0.9161323789   -1.1662088400   -2.2098034531
H       -3.8245835655   -0.5809000670    2.4171802675
H       -2.4604459325   -1.6563387264    2.7149351583
H       -2.2588456090    0.1028682728    2.9195064720
H       -1.5086157653    2.7626008559   -0.9277617737
H       -2.8541973993    1.7428550013   -1.5018419558
H       -1.4324645756    2.0102181880   -2.5357194822
H        3.1081404933   -0.0258732998   -1.0903456548
H        2.7399633783    1.5386641711   -1.8568504059
H        2.9532273873    0.0821380866   -2.8694664524
H        0.7739568279   -3.0147806368   -1.4185872580
H       -0.6419470794   -2.0006567957   -1.0427181691
H        0.9113677909   -1.7298113862   -0.1872767246
H       -1.4121696904   -0.2463536850   -1.4716457826
H       -1.1907236630    1.0415946945    1.1779911987
26   
Generated by ForceBalance from scan.xyz: Frame 11 of 24
C       -2.3755871141   -0.6158982780    0.8453163041
C        0.4188112363    0.8102258522   -0.8942287321
C       -2.7404536131   -0.6622673862    2.3188922122
C       -1.7517317020    1.8449904910   -1.5267472162
C        2.5914316336    0.5102140269   -1.9420335622
C        0.3543573560   -2.0362240678   -1.1979557663
C       -1.0974501101    0.6031297768   -0.8959305760
N       -1.5390951064    0.3998732721    0.4763024861
N        1.1692141420    0.1771157694   -1.8670796883
O       -2.8119075473   -1.4445053527    0.0431247769
O        0.9125263181    1.6825159061   -0.1765994885
O        1.0449497931   -1.2190694365   -2.1586862250
H       -3.8244430690   -0.5544406297    2.4133716166
H       -2.4736922753   -1.6455200466    2.7151217567
H       -2.2515259427    0.1113441643    2.9173562142
H       -1.4913943666    2.7444527678   -0.9625068529
H       -2.8377589709    1.7183238690   -1.5239214692
H       -1.4150356231    1.9711299309   -2.5603606092
H        3.1498636232    0.0939438932   -1.0956440660
H        2.6957309810    1.5948371722   -1.9425539707
H        2.9754617750    0.0981367160   -2.8762250058
H        0.7653680312   -3.0364889432   -1.3554937542
H       -0.7247078062   -2.0609814391   -1.3549746739
H        0.5725601264   -1.7130677179   -0.1731839896
H       -1.4019013600   -0.2695942763   -1.4642974826
H       -1.1779791758    1.0441115768    1.1691964569
26   
Generated by ForceBalance from scan.xyz: Frame 12 of 24
C       -2.1792852758   -0.6667350318    1.1588211480
C        0.3088402334    0.6181267218   -0.6540951047
C       -2.6008195670   -0.5088328961    2.6084069386
C       -1.7277098868    1.6158350584   -1.6775660003
C        2.5867966781    0.4723908098   -1.4994788947
C        0.0919849435   -2.0844924557   -1.8812097938
C       -1.2132940305    0.4585506457   -0.8056127464
N       -1.8232412369    0.4908709300    0.5150611294
N        1.1729514016    0.1190067161   -1.6029382106
O       -2.1891545803   -1.7648594616    0.5982977187
O        0.7288582473    1.4061588218    0.2014990073
O        1.1297053162   -1.1659285931   -2.2341697627
H       -3.6157881493   -0.8986542923    2.7218852473
H       -1.9424476855   -1.1198025836    3.2320132141
H       -2.5726967675    0.5252660750    2.9616294533
H       -1.4762961689    2.5808513745   -1.2271785025
H       -2.8143197742    1.5435958203   -1.7765576282
H       -1.2767599744    1.5730233532   -2.6730938102
H        3.0815072212   -0.0851283177   -0.6963905448
H        2.6661894474    1.5394770928   -1.2987040185
H        3.0546217805    0.2337179278   -2.4557525929
H        0.4781904733   -3.0449995540   -2.2303912272
H       -0.8445880242   -1.8699842986   -2.4057318883
H       -0.0866400018   -2.1288818121   -0.8033377245
H       -1.5079287401   -0.4824141577   -1.2528001627
H       -1.5728157465    1.2907137157    1.0851315839
26   
Generated by ForceBalance from scan.xyz: Frame 13 of 24
C       -2.5470612376   -0.5805596898    0.6670583801
C       -0.0205049367    0.6700780652   -1.7218242373
C       -2.4787306013   -0.8205870479    2.1644768025
C       -2.2900891028    1.7667551376   -1.6418013717
C        2.3579887244    0.3336453841   -1.3328110531
C       -0.0257401747   -2.1496087703   -1.2365660443
C       -1.4826769270    0.5138119860   -1.2773352374
N       -1.5616066876    0.2110699513    0.1470599817
N        0.9719579700    0.0644022697   -0.9429648808
O       -3.4239267675   -1.0844877819   -0.0374144332
O        0.2934222011    1.4519777499   -2.6126763439
O        0.9114984394   -1.3144030649   -0.5453223702
H       -3.4525117977   -0.5878090602    2.6019558899
H       -2.2845106405   -1.8827320402    2.3397823103
H       -1.7068727857   -0.2318711001    2.6676155847
H       -1.8948532045    2.6468001534   -1.1264453583
H       -3.3289121798    1.6107328873   -1.3414364741
H       -2.2474290174    1.9512431946   -2.7167478012
H        2.9997582120   -0.0733829061   -0.5502029167
H        2.4992273410    1.4116546478   -1.4055372135
H        2.6078872180   -0.1262676489   -2.2956861179
H        0.3242548154   -3.1640268339   -1.0308186876
H        0.0073781932   -1.9711825999   -2.3184261660
H       -1.0446417592   -2.0399468174   -0.8633706485
H       -1.9312616034   -0.3328621598   -1.8057478412
H       -0.8182793282    0.5430672983    0.7471258818
26   
Generated by ForceBalance from scan.xyz: Frame 14 of 24
C       -2.5325157653   -0.6257985447    0.6452649610
C       -0.0506357036    0.6603997036   -1.7342116253
C       -2.4643111366   -0.8650956385    2.1424792215
C       -2.2960800267    1.8023185732   -1.6651129838
C        2.3239795823    0.2288361006   -1.3844152934
C       -0.0095683563   -2.1549027470   -1.2104298811
C       -1.5134825268    0.5384386294   -1.2833142548
N       -1.6119628269    0.2502057443    0.1417855210
N        0.9366194665    0.0632341432   -0.9466945891
O       -3.3600461975   -1.1947616434   -0.0699110922
O        0.2690894361    1.3928615881   -2.6643638397
O        0.7864269474   -1.2563560523   -0.4197465990
H       -3.4531141176   -0.6867645136    2.5721014381
H       -2.2139630648   -1.9154446987    2.3165740094
H       -1.7304908442   -0.2360805179    2.6535427310
H       -1.8905380095    2.6799858115   -1.1533405359
H       -3.3398919305    1.6681407758   -1.3710361166
H       -2.2414971072    1.9772157945   -2.7410291936
H        2.9650994310   -0.1253261531   -0.5760521072
H        2.5102534529    1.2857390709   -1.5722889561
H        2.5332763567   -0.3372236684   -2.2999713139
H        0.3131146500   -3.1516111138   -0.8998069139
H        0.1971102567   -2.0256528893   -2.2794677213
H       -1.0770879506   -2.0463501924   -1.0121680347
H       -1.9736285301   -0.3060600486   -1.8052464248
H       -0.8841062535    0.6018304303    0.7493663749
26   
Generated by ForceBalance from scan.xyz: Frame 15 of 24
C       -2.5548731072   -0.6769114336    0.8924972174
C       -0.1458765514    0.5737340156   -1.4283981520
C       -2.4950403338   -0.8150950638    2.4019158024
C       -2.3366809045    1.8148532999   -1.5708331531
C        2.1558576046   -0.1270770252   -0.9910107074
C       -0.2304505562   -2.3055670749   -1.0756024661
C       -1.6403255023    0.5488759313   -1.0583802525
N       -1.8374844856    0.3665041378    0.3731644601
N        0.7385119386   -0.1466825726   -0.6299451016
O       -3.1914217768   -1.4619927633    0.1870376159
O        0.2846054455    1.3161283407   -2.3058989589
O        0.3890365685   -1.4220164044   -0.1150489642
H       -3.4634949722   -1.1618289584    2.7660373314
H       -1.7463409495   -1.5749573999    2.6485660488
H       -2.2247532379    0.1155655257    2.9090825635
H       -1.9257014719    2.7090697234   -1.0928055500
H       -3.4030012250    1.7477515449   -1.3402828630
H       -2.2034587109    1.9184671037   -2.6491311569
H        2.7142032483   -0.5362727132   -0.1478341200
H        2.4579271347    0.9031378291   -1.1762089147
H        2.3578221659   -0.7199934160   -1.8918785313
H       -0.0121196932   -3.3121714961   -0.7109414042
H        0.2162008197   -2.1741338806   -2.0675931141
H       -1.3115999932   -2.1650554787   -1.1096446395
H       -2.1100195361   -0.3146220213   -1.5361961531
H       -1.2366751712    0.8879940799    0.9980976892
26   
Generated by ForceBalance from scan.xyz: Frame 16 of 24
C       -2.9639204299   -0.1613518618    1.5661576203
C        0.0038180015    0.6940073698   -0.3588364742
C       -3.4289432596    0.3384339967    2.9235419970
C       -2.2639819121    0.9710752340   -1.4370339502
C        2.3944573754    0.1089624656   -0.5946921924
C        0.2288116421   -1.4085312493   -2.4768657286
C       -1.4590636946    0.2405403476   -0.3509086936
N       -1.9629975017    0.5640008842    0.9808295272
N        0.9835362993   -0.2476000556   -0.5359299970
O       -3.4524853653   -1.1603170573    1.0369581779
O        0.2880740050    1.8641507889   -0.0870259782
O        0.7298857450   -1.4976740783   -1.1299829225
H       -4.4953949589    0.5726590772    2.8647962643
H       -3.3096450146   -0.4687877706    3.6510168909
H       -2.8865985102    1.2201038029    3.2761431257
H       -2.1957893063    2.0516943827   -1.2854165057
H       -3.3102885521    0.6620221868   -1.3756599435
H       -1.8926919610    0.7457152071   -2.4417770231
H        2.9749121559   -0.7152252666   -0.1751327527
H        2.5414168346    1.0130678631   -0.0056405135
H        2.7186044293    0.2951855882   -1.6261389707
H        0.4219838641   -2.3893120922   -2.9163693838
H        0.7634668623   -0.6385062118   -3.0440204019
H       -0.8451016064   -1.2106132674   -2.4944544079
H       -1.5487104377   -0.8393948081   -0.4580483403
H       -1.6515164952    1.4387236653    1.3856228171
26   
Generated by ForceBalance from scan.xyz: Frame 17 of 24
C       -3.0089925570   -0.1622023233    1.5522723175
C        0.0044106533    0.7186541431   -0.3114678300
C       -3.4802790061    0.3041427080    2.9194755099
C       -2.2538202425    1.0102706282   -1.3952394661
C        2.3989091986    0.1363193555   -0.6495748536
C        0.2893823157   -1.4385848516   -2.4942625230
C       -1.4545622875    0.2552673647   -0.3204974471
N       -1.9692358847    0.5437874288    1.0147612772
N        0.9824573550   -0.1875037309   -0.6110946156
O       -3.5259428060   -1.1203714489    0.9758832251
O        0.2850019843    1.8706962850    0.0353176064
O        0.6864632584   -1.4639963015   -1.1108409340
H       -4.5354188750    0.5827241560    2.8507402066
H       -3.4066423279   -0.5337433265    3.6177551954
H       -2.9108229738    1.1498370297    3.3149078122
H       -2.1941919326    2.0870386437   -1.2151740799
H       -3.2981216615    0.6918207945   -1.3522429088
H       -1.8713695305    0.8126662578   -2.4019054729
H        2.9554173175   -0.6344719833   -0.1102145884
H        2.5331380457    1.1041368383   -0.1681315823
H        2.7639149823    0.1914899048   -1.6819047807
H        0.2823358795   -2.4854307864   -2.8035704695
H        1.0103598369   -0.8782204611   -3.0996910447
H       -0.7102530243   -1.0150095935   -2.6165024365
H       -1.5367361623   -0.8209534342   -0.4633393483
H       -1.6336062668    1.3920438456    1.4554431343
26   
Generated by ForceBalance from scan.xyz: Frame 18 of 24
C       -2.9800904121   -0.1167424894    1.5175042932
C        0.0851014620    0.7263132181   -0.2995835201
C       -3.4562082261    0.3386936110    2.8867376678
C       -2.1560561888    1.0299122021   -1.3993509121
C        2.4652689364    0.1606726843   -0.7608668040
C        0.3304309461   -1.4973070253   -2.5647149951
C       -1.3738796704    0.2675380691   -0.3147973059
N       -1.9018524911    0.5536169551    1.0140117456
N        1.0392863557   -0.1128613730   -0.8007809847
O       -3.5280325736   -1.0383214596    0.9098541648
O        0.3829901921    1.8362025596    0.1536541198
O        0.7247726728   -1.4244573497   -1.1829237634
H       -4.4968517884    0.6646247057    2.8059570948
H       -3.4320887670   -0.5170224975    3.5666611981
H       -2.8581890291    1.1497092070    3.3115232225
H       -2.0978032787    2.1059345013   -1.2135277997
H       -3.2012389098    0.7127979793   -1.3732044458
H       -1.7572685392    0.8340176713   -2.3998793812
H        2.9574923793   -0.5221109366   -0.0607857418
H        2.5971808454    1.1901391817   -0.4298521810
H        2.9025216207    0.0341944652   -1.7563727272
H        0.2567881770   -2.5648184597   -2.7806349964
H        1.0855901052   -1.0371882377   -3.2114350393
H       -0.6398218622   -1.0209650837   -2.7272445879
H       -1.4574015496   -0.8067056186   -0.4707843871
H       -1.5282687588    1.3717220253    1.4808015925
26   
Generated by ForceBalance from scan.xyz: Frame 19 of 24
C       -3.0430784827   -0.0819177426    1.5395994756
C        0.0782054337    0.7113410598   -0.2205491624
C       -3.5306887299    0.3726565666    2.9050333858
C       -2.1395685469    0.9996955762   -1.3626120792
C        2.4291508387    0.2168013192   -0.8098333669
C        0.3484675102   -1.5071619838   -2.6237830971
C       -1.3799443034    0.2545119221   -0.2473141466
N       -1.9363358446    0.5587201581    1.0629798219
N        0.9983708980   -0.0283989928   -0.9211471089
O       -3.6097077627   -0.9776143059    0.9098991025
O        0.4026108741    1.7521538265    0.3563458127
O        0.6928097099   -1.3654837640   -1.2357879001
H       -4.5590821570    0.7316779140    2.8090760641
H       -3.5458474337   -0.4908973413    3.5752889528
H       -2.9160599793    1.1600550406    3.3500411221
H       -2.0921088103    2.0787735922   -1.1899641617
H       -3.1835023890    0.6779922565   -1.3548699710
H       -1.7156523666    0.7905553959   -2.3493301240
H        2.8650384263   -0.3963842123   -0.0132763736
H        2.5737190264    1.2716316989   -0.5799737427
H        2.9126621496   -0.0249830336   -1.7598358996
H        0.2702245843   -2.5838072038   -2.7870094149
H        1.1313016210   -1.0888160370   -3.2658780232
H       -0.6095646432   -1.0288973094   -2.8457064051
H       -1.4556861694   -0.8212530119   -0.4000035449
H       -1.5234378702    1.3411409394    1.5572809672
26   
Generated by ForceBalance from scan.xyz: Frame 20 of 24
C       -3.0441898391   -0.0384708927    1.6640823110
C        0.0987701938    0.6355459639   -0.1097063139
C       -3.5252667665    0.4926084086    3.0041231390
C       -2.1252830064    0.7833818249   -1.2975023475
C        2.4283646563    0.1709607848   -0.7737472103
C        0.5508033210   -1.3541638266   -2.8034373339
C       -1.3547856096    0.1594073639   -0.1173731043
N       -1.9299009306    0.5612807980    1.1565940961
N        0.9906004048   -0.0105266482   -0.9346844884
O       -3.6275127113   -0.9534947252    1.0780029294
O        0.4515730077    1.6044168370    0.5662016467
O        0.6335526070   -1.3024254240   -1.3707131493
H       -4.5465289831    0.8656960163    2.8875929237
H       -3.5580276754   -0.3357895987    3.7168112613
H       -2.8970438609    1.2902149822    3.4102820549
H       -2.0781986414    1.8752867103   -1.2453588969
H       -3.1684433028    0.4651325016   -1.2401443339
H       -1.7173370015    0.4620510669   -2.2590060131
H        2.8267889359   -0.5362519377   -0.0376631675
H        2.6015321356    1.1908460193   -0.4332458461
H        2.9258029480    0.0171770907   -1.7342400950
H        0.2354015097   -2.3741481337   -3.0310247673
H        1.5267784694   -1.1610477397   -3.2631990752
H       -0.1838553095   -0.6395196651   -3.1837195103
H       -1.4028873914   -0.9271762553   -0.1906841006
H       -1.4658913691    1.3223605429    1.6392209670
26   
Generated by ForceBalance from scan.xyz: Frame 21 of 24
C       -3.0573438458    0.0175586432    1.6107714854
C        0.1165649664    0.5938550873   -0.1420265506
C       -3.5451645202    0.6035808579    2.9252290979
C       -2.0902906534    0.6124950773   -1.3878944682
C        2.4107829039    0.1620594773   -0.9091022995
C        0.6867576184   -1.2593249734   -3.0092882611
C       -1.3338867482    0.1085382244   -0.1440442549
N       -1.9413126802    0.5960179501    1.0833050924
N        0.9649623718    0.0471241432   -1.0840607096
O       -3.6411191802   -0.9177896607    1.0578614950
O        0.5033575704    1.4849388465    0.6151238910
O        0.5554220625   -1.2118667607   -1.5820636332
H       -4.5650849821    0.9732350964    2.7880286098
H       -3.5834036017   -0.1950248866    3.6709680704
H       -2.9180591835    1.4164228500    3.3018116181
H       -2.0465202646    1.7043952372   -1.4463640339
H       -3.1336434326    0.3002228558   -1.3087326159
H       -1.6703341245    0.1913679613   -2.3038952937
H        2.7892650054   -0.6642880433   -0.2969538861
H        2.6091086008    1.1100355690   -0.4112508898
H        2.9049459023    0.1547046049   -1.8831659336
H        0.2219098934   -2.2017159458   -3.3048280116
H        1.7395544503   -1.2624873986   -3.3135381592
H        0.1676399557   -0.4175615108   -3.4784688980
H       -1.3606872560   -0.9829615443   -0.1371683459
H       -1.4405407215    1.3306004215    1.5705694748
26   
Generated by ForceBalance from scan.xyz: Frame 22 of 24
C       -3.0645220895    0.0452087077    1.6319119373
C        0.0949611249    0.6033407332   -0.1542507880
C       -3.5296330059    0.6177776449    2.9605429895
C       -2.1213581164    0.6437109480   -1.3779884494
C        2.3498581262    0.1910597898   -1.0087530809
C        0.7843853720   -1.3052827152   -3.0421602019
C       -1.3596617110    0.1336721899   -0.1397196299
N       -1.9508130214    0.6206130282    1.0954811959
N        0.8973887391    0.1128633944   -1.1717019036
O       -3.6651215429   -0.8765487645    1.0745336767
O        0.5190442500    1.4435986661    0.6385075929
O        0.4504540736   -1.1454582911   -1.6596434632
H       -4.5475660378    0.9990392115    2.8415709504
H       -3.5661904211   -0.1905729469    3.6958154123
H       -2.8900738007    1.4195437296    3.3398952961
H       -2.0868334448    1.7365411894   -1.4245062880
H       -3.1621700153    0.3225329476   -1.3015069368
H       -1.6932685499    0.2344081492   -2.2957666005
H        2.7213412851   -0.6834222793   -0.4621730528
H        2.5671434994    1.0964125316   -0.4441810559
H        2.8344075025    0.2512394175   -1.9853284801
H        0.2492030227   -2.2024870308   -3.3585083827
H        1.8601972493   -1.4583640591   -3.1821658202
H        0.4495683688   -0.4410714108   -3.6266396751
H       -1.3938258491   -0.9582324522   -0.1363200857
H       -1.4243770206    1.3270968464    1.5969640827
26   
Generated by ForceBalance from scan.xyz: Frame 23 of 24
C       -3.0633471260    0.0460284981    1.6488662233
C        0.0585625263    0.6312834008   -0.1904239466
C       -3.4990752779    0.5832691978    3.0021071228
C       -2.1777827730    0.7370749056   -1.3665804833
C        2.2857815755    0.2157781502   -1.0853853825
C        0.8955736725   -1.3918102827   -3.0209161690
C       -1.4007668363    0.1795013893   -0.1580891257
N       -1.9607644859    0.6343530296    1.1032877579
N        0.8305422008    0.1695258261   -1.2481504432
O       -3.6774789477   -0.8597872101    1.0804813563
O        0.5102199113    1.4410435402    0.6183278672
O        0.3414027220   -1.0798636163   -1.7423618983
H       -4.5184872959    0.9691467225    2.9147700204
H       -3.5219162559   -0.2444058056    3.7161161132
H       -2.8501702301    1.3737675907    3.3891729092
H       -2.1318850504    1.8304350119   -1.3784547548
H       -3.2207846232    0.4248029329   -1.2825710892
H       -1.7663568949    0.3515764039   -2.3021022726
H        2.6460446580   -0.6774191684   -0.5609149991
H        2.5138579897    1.1007265465   -0.4936510037
H        2.7730474820    0.2996243302   -2.0582896638
H        0.3200493929   -2.2518811316   -3.3681023511
H        1.9523854814   -1.6710269495   -2.9506190051
H        0.7724923306   -0.5552321779   -3.7190086952
H       -1.4495355505   -0.9113963823   -0.1881498190
H       -1.4207216459    1.3245412654    1.6127310332
26   
Generated by ForceBalance from scan.xyz: Frame 24 of 24
C       -3.0703339558    0.0036436800    1.6707090676
C        0.0291665058    0.6364049769   -0.1884987795
C       -3.4800807499    0.4942927208    3.0495481902
C       -2.2190650508    0.8195004094   -1.3307649849
C        2.2383697982    0.2453683839   -1.1094419594
C        0.9933381178   -1.4878033292   -2.9364469783
C       -1.4347341840    0.2017460536   -0.1566042498
N       -1.9739367545    0.6078874220    1.1301709973
N        0.7832369097    0.2145679382   -1.2769014763
O       -3.6982493408   -0.8782526086    1.0801289139
O        0.5000908603    1.4058498724    0.6484820079
O        0.2545683800   -1.0101133410   -1.8150052266
H       -4.4973764622    0.8913017854    2.9926020562
H       -3.4987631693   -0.3587449848    3.7331334612
H       -2.8185273399    1.2650349466    3.4547292399
H       -2.1664820711    1.9119638623   -1.2914392808
H       -3.2633029315    0.5100054359   -1.2510298381
H       -1.8176461426    0.4753068132   -2.2863930290
H        2.5956211174   -0.6282418449   -0.5501748280
H        2.4681722395    1.1473654979   -0.5450761441
H        2.7313099426    0.2973649561   -2.0808976981
H        0.3995474102   -2.3243380362   -3.3095238384
H        1.9867972108   -1.8515033528   -2.6545070396
H        1.0784023628   -0.7223572232   -3.7178051403
H       -1.4971246497   -0.8862277029   -0.2327875023
H       -1.4235000209    1.2759021096    1.6576377448
