62

C      1.89740    5.88630    2.90976
C      0.13956    0.41074   -3.36360
C      3.16088    6.44224    3.10834
C      0.10107    0.60269   -1.98263
C      2.89314    3.68349    3.07032
C     -2.32395    0.36909   -1.99842
C      1.76098    4.49188    2.88015
C     -1.04801    0.19076   -4.06780
C     -2.26547    0.17407   -3.38073
C      4.30442    5.65422    3.28536
C      4.15888    4.24242    3.28197
C     -1.12640    0.58090   -1.29729
C     -1.18674    2.50845    2.39708
C     -1.69213    3.77552    2.32568
C      0.46681    3.85468    2.66445
C     -0.41488   -1.04728   -7.72638
C     -3.41275   -0.04007   -4.34566
C     -2.70904   -0.58937   -5.60844
C     -1.26919   -0.01533   -5.55673
C      5.65597    6.31150    3.42420
C     -3.04492    4.35668    2.11432
C      5.23798    2.07563    2.90255
C      5.84900    3.41162    4.81680
C     -1.90034    1.19748    2.24513
C     -0.22170   -0.90839   -6.22198
C     -2.25946    0.86550    0.79730
N      0.18742    2.58014    2.61426
N      5.31471    3.42472    3.45238
O     -1.16725   -0.38055   -8.39697
O     -0.63671    4.65104    2.49435
O      0.36417   -2.00027   -8.32583
O     -1.04721    0.76969    0.05631
H      1.03117    6.52316    2.76277
H      1.09973    0.43761   -3.87482
H      3.27017    7.52470    3.10008
H      1.00661    0.77367   -1.40808
H      2.75579    2.60866    3.05409
H     -3.28074    0.34510   -1.48731
H     -4.18160   -0.71694   -3.95895
H     -3.90568    0.91786   -4.55948
H     -2.65682   -1.68351   -5.54130
H     -3.22069   -0.33794   -6.53880
H     -1.25312    0.95544   -6.06917
H      5.91296    6.50651    4.47295
H      6.44031    5.67344    3.00808
H      5.66988    7.27479    2.90612
H     -3.30966    5.05212    2.91847
H     -3.10558    4.90351    1.16613
H     -3.79137    3.55878    2.09391
H      6.24564    1.64750    2.88582
H      4.86384    2.11215    1.87651
H      4.59477    1.39407    3.48582
H      6.84568    2.95762    4.81364
H      5.20653    2.83725    5.50663
H      5.93965    4.42559    5.20682
H     -1.26101    0.40697    2.64679
H     -2.83033    1.19509    2.82594
H      0.78584   -0.50073   -6.06394
H     -0.22848   -1.90204   -5.75440
H     -2.80783   -0.08612    0.75245
H     -2.89682    1.65203    0.37087
H      0.90666   -2.45080   -7.65630
