62

C      2.74163    7.68782    0.91681
C      4.06072    8.74739    2.65367
C      3.28682    8.57027   -0.02473
C      4.60190    9.62322    1.71745
C      3.13022    7.77522    2.25868
C      4.21242    9.52999    0.37612
C      0.77730    1.69466   -1.23872
C     -0.65075    1.45100   -1.74012
C      1.02061    1.01582    0.10451
C     -1.41575    1.15327    0.62733
C      1.29807    1.63519    4.69223
C      1.33961    1.77333    3.17085
C     -1.72524    1.85262   -0.70606
C      0.43915    3.97117    3.79363
C     -1.77365    3.38170   -0.51134
C     -3.10759    1.36139   -1.16886
C     -0.89114    4.41693    3.17808
C      0.70923    6.08234    5.20036
C      2.70119    4.60902    4.80081
C      0.25109    0.91594    2.49700
C      1.73790    5.93697    2.90687
C      1.39415    5.14406    4.18861
N     -0.01751    1.44900    1.11615
O      1.12890    3.13993    2.80708
O      2.65977    6.95963    3.25936
S      0.03789    2.83831    5.22114
Cl     4.89489   10.63043   -0.80587
H      2.01936    6.95123    0.58398
H      4.35020    8.80492    3.69866
H      2.98678    8.50809   -1.06606
H      5.32207   10.37524    2.02357
H      1.50545    1.29385   -1.95008
H      0.99066    2.76550   -1.15323
H     -0.81674    2.00199   -2.67059
H     -0.76921    0.38722   -1.98172
H      0.93637   -0.07178    0.02841
H      1.99977    1.26544    0.51522
H     -2.10197    1.47964    1.41252
H     -1.48695    0.06563    0.53520
H      0.98860    0.63457    5.00567
H      2.27153    1.85712    5.12945
H      2.33017    1.50382    2.79184
H     -2.53366    3.65996    0.22568
H     -2.03294    3.87088   -1.45443
H     -0.82079    3.81381   -0.18604
H     -3.88893    1.62457   -0.44800
H     -3.12254    0.27542   -1.30847
H     -3.36990    1.82378   -2.12481
H     -1.49217    3.54304    2.91421
H     -0.73128    5.01906    2.28056
H     -1.47504    5.00968    3.88435
H      1.41339    6.85785    5.50717
H     -0.16327    6.58685    4.77546
H      0.39657    5.53678    6.09525
H      3.37752    5.44236    4.99456
H      3.21432    3.92154    4.12154
H      2.51049    4.10499    5.75147
H     -0.67885    0.99577    3.06306
H      0.53987   -0.13416    2.41803
H      0.83896    6.39727    2.47879
H      2.18469    5.27066    2.15847
H      0.08056    2.47041    1.23543
