20   
Generated by ForceBalance from scan.xyz: Frame 1 of 24
C        2.0442864339   -1.0478101218   -0.0362229700
C        0.8895254387   -0.6105693069    0.6167569365
C        3.1301105358   -1.4801265690    0.7232988513
C        0.8322972587   -0.6264718378    2.0126044270
C        3.0784151342   -1.5141223230    2.1294802002
C        1.9008167065   -1.0854371148    2.7961886197
C        4.2542405808   -2.0450294196    2.8895605890
C        1.7475126109   -1.0869099467    4.2991528752
C        5.6382964625   -2.0232865050    2.2497384358
O        4.1312480771   -2.5264088298    4.0117048866
H        2.1010290253   -1.0463668074   -1.1213141354
H        0.0365128479   -0.2555441242    0.0438251956
H        4.0234838375   -1.8205170707    0.2097122418
H       -0.0688511930   -0.2772303904    2.5110766512
H        1.6730453047   -2.1069458591    4.6846556368
H        2.6090398343   -0.6367978855    4.7988226323
H        0.8472187377   -0.5351354589    4.5843840990
H        6.3603707188   -1.7315710797    3.0155863882
H        5.7286424548   -1.3656317801    1.3845803120
H        5.8930108319   -3.0420738032    1.9355904353
20   
Generated by ForceBalance from scan.xyz: Frame 2 of 24
C        2.0479272563   -1.0484317831   -0.0326165864
C        0.8790216139   -0.6303267599    0.6077707543
C        3.1324131490   -1.4617700539    0.7386933141
C        0.8087958784   -0.6423243297    2.0028415664
C        3.0692540220   -1.4912730740    2.1448815422
C        1.8787471522   -1.0771147852    2.7986931933
C        4.2523895514   -1.9921821583    2.9140509217
C        1.7094667266   -1.0696045623    4.2997053572
C        5.6122669444   -2.0515778209    2.2286697668
O        4.1512288481   -2.3910336478    4.0704069516
H        2.1156561972   -1.0477589980   -1.1170847199
H        0.0251475176   -0.2929131170    0.0255297104
H        4.0369683734   -1.7857505652    0.2345480795
H       -0.1033485009   -0.3079348010    2.4913709412
H        1.6727611419   -2.0874382888    4.6965245425
H        2.5471871182   -0.5803110560    4.8027167083
H        0.7843049953   -0.5519050992    4.5689754649
H        6.3862975607   -1.9970938522    2.9957283016
H        5.7625740037   -1.2693124484    1.4818672227
H        5.7123557838   -3.0189222036    1.7212232086
20   
Generated by ForceBalance from scan.xyz: Frame 3 of 24
C        2.1059144138   -1.0576042250   -0.0370418397
C        0.9221710293   -0.6672630764    0.5933152209
C        3.1893604948   -1.4545241444    0.7437131347
C        0.8393645445   -0.6855680603    1.9873877089
C        3.1163789378   -1.4873418075    2.1499720715
C        1.9115878980   -1.0956214596    2.7935898738
C        4.3092096301   -1.9513443627    2.9277915529
C        1.7246406972   -1.0879307080    4.2923070394
C        5.6399150032   -2.1177682696    2.2045226477
O        4.2416345845   -2.2204998031    4.1236803856
H        2.1850074678   -1.0498727850   -1.1207130697
H        0.0663808201   -0.3471652691    0.0041418948
H        4.1048546016   -1.7554231561    0.2459750694
H       -0.0850774109   -0.3743628131    2.4678954376
H        1.7667006377   -2.1002116743    4.7022684783
H        2.5155789632   -0.5276296706    4.7970942820
H        0.7579730684   -0.6428782880    4.5452568734
H        6.4225185410   -2.2467492313    2.9529934276
H        5.8762265704   -1.2670650495    1.5593057466
H        5.6142290586   -3.0130933613    1.5722901997
20   
Generated by ForceBalance from scan.xyz: Frame 4 of 24
C        2.1071390828   -1.0191395236   -0.0286188817
C        0.9067478111   -0.6780075391    0.5985417487
C        3.1979864292   -1.3911882457    0.7537831719
C        0.8177204061   -0.7147768103    1.9917163556
C        3.1233060446   -1.4328376507    2.1601922892
C        1.9021056811   -1.0862751830    2.8005670990
C        4.3353001835   -1.8413421754    2.9399617243
C        1.7046590531   -1.0947757342    4.2977316275
C        5.6098325132   -2.1978915942    2.1843758157
O        4.3341903723   -1.8978131349    4.1665937933
H        2.1923727279   -0.9956682482   -1.1115967152
H        0.0424626548   -0.3844234204    0.0079269815
H        4.1250740843   -1.6539478677    0.2566541894
H       -0.1214677172   -0.4474912750    2.4699704412
H        1.8932409451   -2.0841711870    4.7218406506
H        2.4020525894   -0.4182881819    4.7982367329
H        0.6814669914   -0.7932384926    4.5400170156
H        6.3737486732   -2.4654583923    2.9150505000
H        5.9666478699   -1.3549997939    1.5833316207
H        5.4488946477   -3.0428633935    1.5067300643
20   
Generated by ForceBalance from scan.xyz: Frame 5 of 24
C        2.1615256406   -0.9961501380   -0.0389523697
C        0.9519636680   -0.7003128471    0.5938977919
C        3.2619902974   -1.3513240935    0.7380718645
C        0.8632621461   -0.7582533311    1.9865491327
C        3.1896807686   -1.4044742556    2.1437488494
C        1.9615871180   -1.0989152795    2.7898952288
C        4.4181986393   -1.7667807022    2.9196647436
C        1.7715787288   -1.1287000916    4.2879060489
C        5.6267984200   -2.3144865808    2.1702132505
O        4.4871748504   -1.6174436348    4.1362611031
H        2.2454327606   -0.9538849403   -1.1214723064
H        0.0784490509   -0.4273847504    0.0070191413
H        4.1974988520   -1.5801713015    0.2392143411
H       -0.0848685024   -0.5310186524    2.4679641671
H        2.0915841895   -2.0808372978    4.7185057877
H        2.3741295384   -0.3606407508    4.7794243265
H        0.7184544423   -0.9643931361    4.5336692200
H        6.3269479630   -2.7146577796    2.9047630346
H        6.1293718877   -1.5090609831    1.6222629715
H        5.3593014838   -3.0950372452    1.4526838467
20   
Generated by ForceBalance from scan.xyz: Frame 6 of 24
C        2.1385525377   -0.9772955456   -0.0396109146
C        0.9226367686   -0.7132330581    0.5953308879
C        3.2472767108   -1.3144144052    0.7342673305
C        0.8366436698   -0.7797211530    1.9880222344
C        3.1768361453   -1.3711992937    2.1393325446
C        1.9447866426   -1.0937335518    2.7883649759
C        4.4170611733   -1.6915182864    2.9143631679
C        1.7639837636   -1.1298784312    4.2875685610
C        5.5910101212   -2.3470187688    2.1960214351
O        4.5291060368   -1.4101950929    4.1037992269
H        2.2206654778   -0.9263102836   -1.1218918908
H        0.0422516137   -0.4592823123    0.0101930444
H        4.1890444768   -1.5179510932    0.2353085492
H       -0.1167374728   -0.5796233270    2.4712503245
H        2.1694091819   -2.0450339440    4.7259475827
H        2.2961167516   -0.3045489149    4.7678272061
H        0.7015910530   -1.0581919025    4.5378572803
H        6.1812154695   -2.8833919727    2.9413918780
H        6.2353239077   -1.5687571336    1.7699662260
H        5.2943846053   -3.0309777129    1.3983816821
20   
Generated by ForceBalance from scan.xyz: Frame 7 of 24
C        2.1627060440   -0.9774686288   -0.0335012328
C        0.9471113424   -0.7320280916    0.6093826434
C        3.2800647823   -1.3061237097    0.7321958566
C        0.8707847623   -0.8050739649    2.0025324900
C        3.2183790057   -1.3680687672    2.1370234649
C        1.9883056775   -1.1054955849    2.7946215202
C        4.4665903572   -1.6661263207    2.9077201550
C        1.8217707704   -1.1455770119    4.2955447189
C        5.6150033398   -2.4013944308    2.2248690482
O        4.6048921526   -1.3089035718    4.0736405565
H        2.2382126591   -0.9196325408   -1.1159135930
H        0.0599622894   -0.4875579963    0.0304560678
H        4.2222166620   -1.4935678289    0.2272656250
H       -0.0822150184   -0.6198628880    2.4924416038
H        2.2690559733   -2.0412761206    4.7334835765
H        2.3217651935   -0.2959657645    4.7680160482
H        0.7596271328   -1.1185220917    4.5553082306
H        6.0420475913   -3.0930614359    2.9553076086
H        6.4026759646   -1.6806761429    1.9778241469
H        5.3341449225   -2.9529907605    1.3271882194
20   
Generated by ForceBalance from scan.xyz: Frame 8 of 24
C        2.1315712749   -0.9798560690   -0.0450918601
C        0.9171048739   -0.7596693823    0.6085380557
C        3.2634879265   -1.2824573268    0.7102950991
C        0.8557813931   -0.8287718074    2.0026955453
C        3.2164799377   -1.3403094541    2.1157020716
C        1.9875571778   -1.1000927988    2.7845814715
C        4.4759461907   -1.6073574630    2.8806483858
C        1.8373292886   -1.1360628487    4.2875668517
C        5.6048404373   -2.4038852987    2.2347198316
O        4.6280709889   -1.2002817056    4.0282389850
H        2.1958281796   -0.9229398600   -1.1282626421
H        0.0192218571   -0.5372101873    0.0373730886
H        4.2045242482   -1.4483426056    0.1959568414
H       -0.0962522638   -0.6627252513    2.5012847124
H        2.3106723047   -2.0183613224    4.7257246775
H        2.3204907871   -0.2716717035    4.7502129835
H        0.7776150127   -1.1345940491    4.5583361338
H        5.8297052868   -3.2421651785    2.9012299579
H        6.5047588488   -1.7821880768    2.1987881206
H        5.3866691424   -2.7982969403    1.2426951046
20   
Generated by ForceBalance from scan.xyz: Frame 9 of 24
C        2.1495984567   -1.2688595999   -0.0100932787
C        1.0065319769   -0.7971614828    0.6394709596
C        3.2578170435   -1.6382193143    0.7503704512
C        0.9828445432   -0.7168261276    2.0341065501
C        3.2399545945   -1.5752409171    2.1563519829
C        2.0743901281   -1.1116053514    2.8208391343
C        4.4385011552   -2.0432776162    2.9221216436
C        1.9573912207   -1.0109369732    4.3237103870
C        5.8099110930   -2.0404423705    2.2543429001
O        4.3455529561   -2.4530873242    4.0751131555
H        2.1801906077   -1.3421618911   -1.0937602488
H        0.1364929890   -0.4898159998    0.0645847034
H        4.1421564735   -2.0059335371    0.2399577713
H        0.0904354973   -0.3414531314    2.5293081007
H        1.8995965249   -2.0026381243    4.7796100305
H        2.8273427884   -0.5228142234    4.7702692521
H        1.0602221483   -0.4460448173    4.5926396465
H        6.1043192885   -3.0713046463    2.0309946824
H        6.5271611073   -1.6380404472    2.9740639540
H        5.8645844965   -1.4480231838    1.3402055661
20   
Generated by ForceBalance from scan.xyz: Frame 10 of 24
C        2.1537843155   -1.2698693331   -0.0069914918
C        0.9967148227   -0.8182374015    0.6321600090
C        3.2612502963   -1.6184073402    0.7637223966
C        0.9607204731   -0.7335617471    2.0260741089
C        3.2322704788   -1.5506040288    2.1696710558
C        2.0539732306   -1.1029038188    2.8232278234
C        4.4381469929   -1.9885147447    2.9415475249
C        1.9218114494   -0.9937687780    4.3240291950
C        5.7860618741   -2.0664480439    2.2332868255
O        4.3663392774   -2.3204330327    4.1209803975
H        2.1948379307   -1.3443483500   -1.0902396342
H        0.1254159862   -0.5295177371    0.0495511288
H        4.1569010963   -1.9688892420    0.2613020727
H        0.0573963790   -0.3736631141    2.5128581944
H        1.8984987525   -1.9826174587    4.7893490358
H        2.7698291174   -0.4699811494    4.7720157267
H        1.0016780320   -0.4609499713    4.5807046467
H        5.9211561901   -3.0701546071    1.8141375827
H        6.5672836302   -1.8990461491    2.9770161372
H        5.8975218541   -1.3389972063    1.4265214311
20   
Generated by ForceBalance from scan.xyz: Frame 11 of 24
C        2.2956745448   -0.7385050117    0.0007952684
C        1.0948556664   -0.3944154887    0.6258306869
C        3.3266006871   -1.2795125785    0.7660348948
C        0.9427201523   -0.6017495562    1.9986433672
C        3.1827697805   -1.5036535350    2.1490937700
C        1.9603654494   -1.1597774608    2.7864917793
C        4.3196495885   -2.1174436142    2.9063712617
C        1.7004223932   -1.3528353118    4.2617180899
C        5.6828055029   -2.2188948463    2.2325446125
O        4.1806032517   -2.5601126845    4.0429382255
H        2.4283778751   -0.5844090979   -1.0665850625
H        0.2797109552    0.0360747581    0.0494697361
H        4.2560217747   -1.5431579686    0.2729019183
H        0.0059089174   -0.3249092751    2.4762307374
H        1.6834207300   -2.4133962234    4.5254092063
H        2.4863440560   -0.9045674960    4.8746616023
H        0.7401888370   -0.9047340069    4.5330897342
H        5.6794800647   -3.0243214494    1.4892501467
H        6.4236651723   -2.4529640100    2.9980777416
H        5.9670583896   -1.2945111216    1.7219432545
20   
Generated by ForceBalance from scan.xyz: Frame 12 of 24
C        2.3290821556   -0.7105586240    0.0065156135
C        1.1070049776   -0.4150313991    0.6146493780
C        3.3634864301   -1.2288252219    0.7823658738
C        0.9403648384   -0.6419558373    1.9824790789
C        3.2104270206   -1.4630009461    2.1633034848
C        1.9670137223   -1.1630241205    2.7841215690
C        4.3648734201   -2.0212725473    2.9375993247
C        1.6875131044   -1.3724524324    4.2533327300
C        5.6672494454   -2.3177796387    2.2039424686
O        4.2948761249   -2.2469313529    4.1425787039
H        2.4743433800   -0.5397545550   -1.0566800597
H        0.2857876217   -0.0096570463    0.0287535202
H        4.3080559555   -1.4547146481    0.3002514526
H       -0.0151387750   -0.4085887908    2.4459440485
H        1.8220389573   -2.4177718663    4.5424335500
H        2.3767874992   -0.7993730881    4.8785877041
H        0.6622770437   -1.0689128327    4.4842080936
H        5.5176420639   -3.0532158736    1.4065623616
H        6.3813528568   -2.7135631875    2.9267511644
H        6.0824182982   -1.4136651023    1.7464648510
20   
Generated by ForceBalance from scan.xyz: Frame 13 of 24
C        2.3210657432   -0.6655815477    0.0160751643
C        1.0844162530   -0.4261418724    0.6197314510
C        3.3700668572   -1.1540319586    0.7920285665
C        0.9191906780   -0.6719175956    1.9846651144
C        3.2201739900   -1.3961734265    2.1714049412
C        1.9649352791   -1.1481838331    2.7892092196
C        4.3976618091   -1.8917079987    2.9528606253
C        1.6929019678   -1.3768269852    4.2571502499
C        5.6261657888   -2.3856949716    2.1983537192
O        4.4107189446   -1.8910526024    4.1804212148
H        2.4652179131   -0.4778574304   -1.0444141020
H        0.2498875819   -0.0520613117    0.0318534285
H        4.3267768724   -1.3379803345    0.3151827320
H       -0.0493267843   -0.4876529888    2.4433230772
H        1.9800716516   -2.3833395836    4.5714503411
H        2.2744864248   -0.6916325927    4.8791460599
H        0.6294524537   -1.2298214082    4.4667956673
H        5.3681058249   -3.0428500582    1.3631588936
H        6.2623911472   -2.9251379049    2.9011493907
H        6.1899314909   -1.5369871774    1.7945273361
20   
Generated by ForceBalance from scan.xyz: Frame 14 of 24
C        2.2638179730   -0.6388321107    0.0199523648
C        1.0219970900   -0.4347469254    0.6261951576
C        3.3247170763   -1.1101186233    0.7908888303
C        0.8636599125   -0.6925305373    1.9899905929
C        3.1810817747   -1.3601689378    2.1689232863
C        1.9233158097   -1.1429118702    2.7908403865
C        4.3735514149   -1.8161522125    2.9510931106
C        1.6661566214   -1.3813147131    4.2601293048
C        5.5615879965   -2.4200863965    2.2105388451
O        4.4367310370   -1.6857133470    4.1698570268
H        2.4025264251   -0.4390246230   -1.0390547772
H        0.1776716858   -0.0792178922    0.0408161470
H        4.2869174246   -1.2662159004    0.3141729511
H       -0.1093034461   -0.5372444039    2.4501094864
H        2.0341736603   -2.3571600650    4.5864248331
H        2.1862168859   -0.6421754087    4.8750281209
H        0.5937411555   -1.3208750954    4.4667597097
H        5.2829453173   -2.9479043324    1.2960721143
H        6.0618801610   -3.1153555041    2.8871274967
H        6.2707412428   -1.6264623191    1.9485775872
20   
Generated by ForceBalance from scan.xyz: Frame 15 of 24
C        2.2600009135   -0.6367713738    0.0168870276
C        1.0175512729   -0.4584567962    0.6297123166
C        3.3340140706   -1.0901755033    0.7809545535
C        0.8717246970   -0.7199181829    1.9944080144
C        3.2022323496   -1.3427204745    2.1593314875
C        1.9451336927   -1.1472571383    2.7890425024
C        4.4063049470   -1.7693351612    2.9404744598
C        1.7051021965   -1.3878640881    4.2610949787
C        5.5649868315   -2.4578880179    2.2262955771
O        4.4983025801   -1.5600767734    4.1461776049
H        2.3895065224   -0.4318460459   -1.0422997858
H        0.1631460311   -0.1198187646    0.0489897673
H        4.2972902675   -1.2247026368    0.2995069905
H       -0.1016579868   -0.5846301246    2.4599680486
H        2.1115401950   -2.3473826150    4.5906802258
H        2.1991431772   -0.6252311400    4.8685242763
H        0.6324075421   -1.3682575775    4.4738853003
H        5.3233717837   -2.8282108186    1.2292594963
H        5.8798301335   -3.3019871725    2.8449582176
H        6.4087110325   -1.7633743475    2.1554689981
20   
Generated by ForceBalance from scan.xyz: Frame 16 of 24
C        2.0818243135   -0.8537039500   -0.0623604402
C        0.9246876681   -0.4325435171    0.5966558201
C        3.1372336287   -1.3737973887    0.6853212151
C        0.8335604835   -0.5521318410    1.9857583993
C        3.0507271436   -1.5123546019    2.0831932415
C        1.8694187830   -1.1013206535    2.7546988675
C        4.1895608318   -2.1357099258    2.8296540113
C        1.6803208428   -1.2129747356    4.2495572479
C        5.6061664702   -2.0450359020    2.2719019560
O        4.0146866615   -2.7238522458    3.8923511522
H        2.1643649980   -0.7729251815   -1.1427721674
H        0.0959351439   -0.0100688042    0.0339871231
H        4.0315956076   -1.7027536243    0.1661718546
H       -0.0689794973   -0.2146178185    2.4897793355
H        1.5540057743   -2.2558262467    4.5514917638
H        2.5472115503   -0.8406244673    4.8012303242
H        0.7970671993   -0.6468170636    4.5588169970
H        5.7107814452   -1.4526592823    1.3633764754
H        5.9884441043   -3.0564961730    2.1031892475
H        6.2314343721   -1.5999653630    3.0519440655
20   
Generated by ForceBalance from scan.xyz: Frame 17 of 24
C        2.1052520641   -0.8752387128   -0.0525302789
C        0.9333567304   -0.4721440863    0.5919759216
C        3.1630768871   -1.3675593973    0.7099823926
C        0.8322767478   -0.5797997864    1.9813002472
C        3.0669467097   -1.4943156883    2.1085087834
C        1.8725506165   -1.0989202643    2.7654271215
C        4.2139959397   -2.0871164592    2.8659467110
C        1.6725901225   -1.1975972648    4.2595444636
C        5.6136267017   -2.0513913918    2.2613705188
O        4.0553026155   -2.6299573068    3.9550960607
H        2.1964210801   -0.8017670637   -1.1327866345
H        0.1012296392   -0.0723777238    0.0177747697
H        4.0701481629   -1.6812168612    0.2034440239
H       -0.0815227279   -0.2558526344    2.4737956712
H        1.5679414284   -2.2396969423    4.5728173323
H        2.5258489923   -0.7994693295    4.8141387398
H        0.7733369765   -0.6489831014    4.5540352054
H        5.7514905555   -1.3107650736    1.4730576745
H        5.8595969662   -3.0462741879    1.8732966079
H        6.3166584814   -1.8500123807    3.0734687368
20   
Generated by ForceBalance from scan.xyz: Frame 18 of 24
C        2.0858179171   -0.8604629902   -0.0575708433
C        0.9034092969   -0.4710464462    0.5761398924
C        3.1409632576   -1.3422544019    0.7146762825
C        0.7906244270   -0.5784318797    1.9643624873
C        3.0346270657   -1.4682078520    2.1129635647
C        1.8305371166   -1.0824601502    2.7591351487
C        4.1876340878   -2.0390087241    2.8785901730
C        1.6167327331   -1.1759509250    4.2514971896
C        5.5644455311   -2.0772707348    2.2253090960
O        4.0496105813   -2.5087622057    4.0040888813
H        2.1863450844   -0.7852328701   -1.1368795805
H        0.0717578723   -0.0818730642   -0.0059732653
H        4.0566196630   -1.6435609434    0.2165833829
H       -0.1316623703   -0.2653228760    2.4479246310
H        1.5526754816   -2.2181454523    4.5750658636
H        2.4464968427   -0.7374718042    4.8112324362
H        0.6918631604   -0.6623908485    4.5295794174
H        5.7595503922   -1.2364416348    1.5567804875
H        5.6703044001   -3.0094323243    1.6576518262
H        6.3112646384   -2.0966947375    3.0212492383
20   
Generated by ForceBalance from scan.xyz: Frame 19 of 24
C        2.0823091402   -0.8483357457   -0.0497163802
C        0.8866221514   -0.4795562156    0.5710087858
C        3.1343604304   -1.3180723729    0.7335483483
C        0.7610985941   -0.5912838692    1.9575434173
C        3.0182021154   -1.4452476769    2.1315506317
C        1.8011037045   -1.0753579281    2.7648328981
C        4.1788966876   -1.9837413936    2.9096549373
C        1.5688795269   -1.1663037320    4.2544107059
C        5.5268286718   -2.1299998838    2.2135969167
O        4.0723089196   -2.3283992527    4.0830954995
H        2.1945936044   -0.7681883594   -1.1275091364
H        0.0546862360   -0.1039761207   -0.0195753315
H        4.0595575055   -1.6016588670    0.2436897233
H       -0.1722265973   -0.2961463249    2.4309705461
H        1.5827259194   -2.2047146384    4.5951363089
H        2.3528435735   -0.6556962779    4.8192131874
H        0.6020465515   -0.7225131611    4.5089574796
H        5.8039236035   -1.2405394439    1.6411306081
H        5.5066597202   -2.9828769206    1.5253505329
H        6.2813026949   -2.3260396313    2.9766240435
20   
Generated by ForceBalance from scan.xyz: Frame 20 of 24
C        2.1131794054   -0.8209754797   -0.0465845520
C        0.8980201530   -0.4985599618    0.5617592587
C        3.1684849543   -1.2694376781    0.7444593801
C        0.7592733886   -0.6295492507    1.9451546693
C        3.0435367924   -1.4064782066    2.1411991582
C        1.8073278896   -1.0788540471    2.7624074735
C        4.2192383322   -1.8939568845    2.9312193286
C        1.5570711115   -1.1861809589    4.2478128741
C        5.5113476146   -2.2281495117    2.1957310174
O        4.1745121439   -2.0324803521    4.1504861005
H        2.2370496550   -0.7245026972   -1.1217608507
H        0.0608060357   -0.1465816639   -0.0358966213
H        4.1073573760   -1.5170288912    0.2618690382
H       -0.1909834295   -0.3760474058    2.4088249278
H        1.7111717085   -2.2063974477    4.6081069029
H        2.2494128596   -0.5612790200    4.8175401361
H        0.5320066047   -0.8798172051    4.4757059708
H        5.9070844212   -1.3547389996    1.6669654525
H        5.3560875696   -3.0204563036    1.4559804183
H        6.2434370695   -2.5634482776    2.9310532464
20   
Generated by ForceBalance from scan.xyz: Frame 21 of 24
C        2.1058164049   -0.7779900034   -0.0415309804
C        0.8777415083   -0.5080149419    0.5666715612
C        3.1741570967   -1.1980894788    0.7478647188
C        0.7400063609   -0.6561662241    1.9485943092
C        3.0520613311   -1.3420348304    2.1436950163
C        1.8052146425   -1.0630941453    2.7656078672
C        4.2484365092   -1.7704660125    2.9363389362
C        1.5613842004   -1.1882027326    4.2508871702
C        5.4739200049   -2.2910015733    2.1955139967
O        4.2781756163   -1.6955192032    4.1613532847
H        2.2286454194   -0.6660452972   -1.1153280904
H        0.0285298636   -0.1856385566   -0.0307209051
H        4.1239619448   -1.4061367869    0.2672399890
H       -0.2220218038   -0.4486816164    2.4109591516
H        1.8585385228   -2.1692765596    4.6297335149
H        2.1514934025   -0.4593993027    4.8122848899
H        0.5013450362   -1.0298874313    4.4694160407
H        6.0018381404   -1.4601777444    1.7127923977
H        5.2175592388   -3.0139860141    1.4161439367
H        6.1446929218   -2.7492459683    2.9231043464
20   
Generated by ForceBalance from scan.xyz: Frame 22 of 24
C        2.0535238058   -0.7520624471   -0.0362822484
C        0.8206647576   -0.5160006356    0.5766406579
C        3.1327710579   -1.1571819535    0.7465980966
C        0.6894232999   -0.6768900125    1.9579929955
C        3.0164506559   -1.3096800067    2.1414240902
C        1.7676528335   -1.0598139305    2.7691986718
C        4.2265664599   -1.7013450874    2.9317703712
C        1.5385061483   -1.1955620447    4.2560644211
C        5.4110060138   -2.3329618962    2.2100494040
O        4.3064053942   -1.4952411130    4.1390767957
H        2.1712575549   -0.6273798473   -1.1092464126
H       -0.0374700126   -0.2106450274   -0.0169225301
H        4.0876547192   -1.3382578878    0.2641274492
H       -0.2765838789   -0.4974072979    2.4239156694
H        1.9137832522   -2.1467117379    4.6418314642
H        2.0693831294   -0.4160911078    4.8086380666
H        0.4700997221   -1.1209648044    4.4781772485
H        6.0764286284   -1.5365472197    1.8547616226
H        5.1271248739   -2.9367458945    1.3456768911
H        5.9685117424   -2.9364980597    2.9279116337
20   
Generated by ForceBalance from scan.xyz: Frame 23 of 24
C        2.0704320376   -0.7514047436   -0.0313745127
C        0.8373606994   -0.5357586231    0.5884160209
C        3.1593850467   -1.1456745710    0.7442187633
C        0.7155424130   -0.7025251245    1.9701776504
C        3.0517422056   -1.3020083425    2.1388732454
C        1.8041065141   -1.0693524571    2.7744710633
C        4.2711655821   -1.6665296541    2.9275902540
C        1.5891435134   -1.2089869107    4.2633540512
C        5.4263635717   -2.3866021133    2.2403532753
O        4.3802969135   -1.3757397170    4.1148439235
H        2.1812700176   -0.6204483694   -1.1043187640
H       -0.0282700006   -0.2417385789    0.0000577332
H        4.1151767864   -1.3093681892    0.2569031248
H       -0.2508099745   -0.5396436448    2.4415182767
H        2.0154106949   -2.1363736091    4.6537527689
H        2.0796429824   -0.3977569927    4.8076522310
H        0.5194284696   -1.1896939904    4.4907585534
H        6.2386343649   -1.6683437734    2.0795587321
H        5.1732490896   -2.8381494453    1.2805536337
H        5.8024032144   -3.1515067707    2.9233889484
20   
Generated by ForceBalance from scan.xyz: Frame 24 of 24
C        2.0409964241   -1.0378303992   -0.0380866150
C        0.8986512178   -0.5845301948    0.6252866083
C        3.1239322356   -1.4958859998    0.7108697854
C        0.8496653664   -0.6110774068    2.0213605971
C        3.0801174754   -1.5407525946    2.1168742410
C        1.9138794143   -1.0970205506    2.7941083985
C        4.2467351681   -2.1007068200    2.8711914107
C        1.7693622128   -1.1090624284    4.2980923834
C        5.6495764894   -2.0181179539    2.2787143003
O        4.1060912988   -2.6228718966    3.9727354986
H        2.0910710783   -1.0295221192   -1.1234642238
H        0.0488822068   -0.2092146620    0.0605421563
H        4.0059692959   -1.8507064757    0.1878302014
H       -0.0416283596   -0.2491469881    2.5284422295
H        1.6598917584   -2.1300062074    4.6727436667
H        2.6488997902   -0.6954453765    4.7978652030
H        0.8910442190   -0.5286273597    4.5946866778
H        6.2681774119   -1.4520992437    2.9819032826
H        5.7123465761   -1.5445813278    1.2993791266
H        6.0695923283   -3.0268677592    2.2224638964
