28

C     -0.44940    2.33406   -1.27830
C     -1.32290    1.72895   -0.33072
C      0.72188    1.69326   -1.57604
C     -1.02091    0.53715    0.28027
C      0.22817   -0.15287   -0.03304
C     -3.26777   -0.56753    0.70432
C     -2.11352    0.68361    2.56804
C     -4.10242   -1.33302    1.72465
C     -2.94110   -0.07424    3.59977
C     -1.90603   -0.15238    1.29152
N      1.02902    0.50854   -0.97307
N     -4.26799   -0.49652    2.98534
O      0.59461   -1.22631    0.45826
H     -0.69397    3.27449   -1.75648
H     -2.25559    2.23959   -0.09386
H      1.44857    2.07707   -2.28418
H     -3.12250   -1.21757   -0.16298
H     -3.82556    0.30892    0.34951
H     -2.59580    1.64196    2.33531
H     -1.14865    0.92202    3.02417
H     -5.10599   -1.56942    1.36408
H     -3.60998   -2.25647    2.03846
H     -2.44790   -0.99687    3.91481
H     -3.17429    0.52440    4.48312
H     -1.36904   -1.06594    1.57213
H      1.89962    0.03269   -1.19477
H     -4.82249   -1.01432    3.67636
H     -4.80729    0.34585    2.75385
