31

C      2.73822   -1.03464    0.39685
C      5.62443   -3.17591    6.17307
C      1.79424   -1.95555    0.86823
C      3.22044   -0.04386    1.25527
C      5.33038   -1.84815    5.84924
C      4.58538   -4.11445    6.17761
C      1.34220   -1.87938    2.18605
C      2.76489    0.02506    2.57664
C      4.02781   -1.45383    5.53414
C      3.28173   -3.73158    5.86486
C      1.82016   -0.88835    3.05806
C      2.98172   -2.39436    5.54099
C     -0.03845   -0.28826    4.77310
C      1.20495    0.43513    5.23871
C      1.32981   -0.87170    4.48503
N      1.64923   -2.03181    5.28849
H      3.09303   -1.09134   -0.62901
H      6.64071   -3.47522    6.41326
H      1.41031   -2.72824    0.20673
H      3.95729    0.67235    0.90022
H      6.12416   -1.10487    5.83675
H      4.79062   -5.15376    6.42269
H      0.60296   -2.59433    2.54252
H      3.15439    0.79475    3.23712
H      3.82388   -0.41892    5.28752
H      2.48277   -4.47136    5.87165
H     -0.64259   -0.79008    5.52311
H     -0.58454    0.12975    3.93337
H      1.47393    1.35449    4.72901
H      1.43681    0.40547    6.29780
H      1.06430   -2.83110    5.06952
