31

C      4.91792    0.02950   -0.34344
C      5.49163   -0.33090    0.88091
C      3.60901   -0.36406   -0.62701
C      4.75669   -1.07260    1.80741
C      2.85419   -1.11304    0.28400
C      3.44246   -1.45875    1.51044
C     -0.29516    1.67466    1.10023
C     -1.56863    1.75479    0.24772
C      0.24797    0.24988    1.22279
C     -1.34903    1.19938   -1.16260
C      1.43852   -1.51564   -0.06087
N      0.57601   -0.30718   -0.10993
O     -1.85306   -1.28957   -0.37076
O     -0.34934   -0.97900   -2.39397
O      2.67982   -2.17522    2.40761
S     -0.81056   -0.52404   -1.07702
H      5.48645    0.60595   -1.06753
H      6.51045   -0.03631    1.11834
H      3.14596   -0.08817   -1.57134
H      5.20117   -1.35022    2.76222
H      0.48467    2.30695    0.65996
H     -0.50172    2.05984    2.10458
H     -2.37871    1.19402    0.72523
H     -1.90165    2.79473    0.16027
H      1.18228    0.25907    1.78847
H     -0.45859   -0.40316    1.75442
H     -2.26916    1.17897   -1.75253
H     -0.57121    1.73113   -1.71504
H      1.42125   -1.96534   -1.05551
H      1.05094   -2.24607    0.65556
H      3.21480   -2.36608    3.19404
