31

C     -2.71424   -2.93959   -3.90698
C     -2.06040   -2.64209   -5.10756
C     -2.07595   -2.67017   -2.69509
C     -0.78460   -2.07510   -5.08910
C     -0.79404   -2.10905   -2.65176
C     -0.15860   -1.80548   -3.86538
C      0.72591    1.25212   -1.21805
C      1.14869    1.48016    0.24311
C     -0.67451    0.63210   -1.33289
C      1.12732    0.19046    1.07565
C     -0.13357   -1.82570   -1.32305
N     -0.80156   -0.68119   -0.65561
O     -0.47062   -1.91632    1.55706
O     -1.47307    0.43164    1.52889
O      1.09224   -1.22329   -3.80704
S     -0.52560   -0.55831    1.00836
H     -3.70798   -3.37769   -3.91703
H     -2.54072   -2.84807   -6.06038
H     -2.57458   -2.88659   -1.75350
H     -0.27722   -1.83811   -6.02329
H      0.72523    2.21127   -1.74778
H      1.45378    0.61247   -1.72933
H      2.16200    1.89495    0.28136
H      0.48288    2.21072    0.71390
H     -1.42658    1.29328   -0.89603
H     -0.94501    0.47297   -2.37899
H      1.82153   -0.56572    0.69767
H      1.33879    0.37069    2.13295
H     -0.25105   -2.68543   -0.66314
H      0.93800   -1.65124   -1.46572
H      1.41849   -1.09195   -4.71121
