31

C     -2.94968   -4.40512   -3.03917
C     -3.48582   -3.56208   -4.01852
C     -2.07115   -3.87959   -2.09009
C     -3.14770   -2.20754   -4.03837
C     -1.71184   -2.52650   -2.09503
C     -2.26890   -1.69292   -3.07664
C     -2.14221    0.47519    0.44635
C     -1.20768    0.77394    1.63092
C     -2.56920   -0.99918    0.39469
C      0.06091   -0.09068    1.61911
C     -0.76217   -1.98920   -1.05032
N     -1.43255   -1.94408    0.27260
O      0.79361   -2.65746    1.30554
O     -1.20083   -2.10098    2.79922
O     -1.93040   -0.35439   -3.05005
S     -0.39231   -1.84905    1.60277
H     -3.21248   -5.45869   -3.01808
H     -4.16877   -3.95437   -4.76732
H     -1.65360   -4.51960   -1.31674
H     -3.56902   -1.54944   -4.79709
H     -3.04216    1.09451    0.53084
H     -1.65970    0.75114   -0.49779
H     -0.90401    1.82647    1.61459
H     -1.73659    0.60514    2.57455
H     -3.11964   -1.27356    1.29768
H     -3.22486   -1.18499   -0.45878
H      0.67479    0.07543    0.72907
H      0.67764    0.05793    2.50941
H      0.08985   -2.66140   -0.94727
H     -0.38498   -1.00735   -1.35487
H     -2.36508    0.09288   -3.79315
