36

C     -0.16774   -0.23860    4.58957
C     -0.72639   -1.41478    4.07654
C      1.06674    0.20683    4.10725
C      3.80862   -3.87327    0.94766
C      3.36173   -3.92589   -0.37533
C     -0.05685   -2.13521    3.08428
C      1.73521   -0.51658    3.11416
C      3.08285   -3.14197    1.89040
C      2.19945   -3.24379   -0.74153
C      1.17964   -1.69234    2.58724
C      1.90760   -2.46282    1.53551
C      1.46136   -2.51087    0.19806
C     -1.15871   -1.75470   -2.36502
C     -0.97382   -0.25375   -2.54316
C     -0.49759    0.47240   -1.28097
C      0.68226   -0.27734   -0.66166
C      0.25839   -1.69496   -0.25076
N     -0.44019   -2.35362   -1.36048
O     -1.87673   -2.41480   -3.11613
H     -0.68865    0.32289    5.36071
H     -1.68114   -1.77370    4.45243
H      1.50941    1.11797    4.50178
H      4.71136   -4.40033    1.24536
H      3.91600   -4.49197   -1.11952
H     -0.48796   -3.05480    2.69562
H      2.69283   -0.16663    2.73641
H      3.41796   -3.10206    2.92371
H      1.85656   -3.27140   -1.77204
H     -0.24111   -0.12633   -3.35009
H     -1.92132    0.14040   -2.91784
H     -0.21575    1.50287   -1.52233
H     -1.31537    0.53062   -0.55150
H      1.50853   -0.34351   -1.37997
H      1.05990    0.23647    0.22701
H     -0.43390   -1.59458    0.59209
H     -0.65348   -3.34031   -1.24985
