28

C      0.82850    0.55130    2.94383
C      1.95200   -1.22512   -0.14061
C      2.55310   -2.36050    0.41377
C     -1.14028   -1.73195    9.15384
C     -1.99053   -2.81676    8.91927
C      1.35410   -0.28455    0.69624
C      2.53247   -2.56844    1.79445
C     -0.15820   -1.42938    8.21289
C     -1.80130   -3.55670    7.74928
C      1.35503   -0.47250    2.08786
C      1.93074   -1.63542    2.64450
C     -0.05293   -2.24811    7.07725
C      0.71275   -1.92828    4.75492
N      0.44351    1.40492    3.63732
N     -0.84391   -3.29841    6.85013
N      1.93016   -1.82441    4.04349
N      0.96790   -2.00324    6.13019
O     -0.38035   -1.92930    4.23075
H      1.95461   -1.07230   -1.21568
H      3.02323   -3.09758   -0.23136
H     -1.25057   -1.11943   10.04482
H     -2.77699   -3.08380    9.61856
H      0.89793    0.61131    0.28668
H      2.96779   -3.47034    2.21777
H      0.49635   -0.57097    8.33941
H     -2.44062   -4.40968    7.52681
H      2.67867   -2.40365    4.40641
H      1.73261   -1.41919    6.44690
