26

C      1.75694   -1.23746   -0.21238
C      0.69883   -0.55287    0.39969
C      2.78767   -1.73445    0.58090
C      0.69393   -0.35575    1.77747
C      5.81811   -2.57066    3.61477
C      4.82198   -3.47963    4.05136
C      2.79085   -1.54645    1.96930
C      1.74051   -0.83565    2.58430
C      5.16406   -1.70398    2.75208
C      5.65909   -0.51977    1.98334
C      2.76568   -0.36639    4.73585
N      3.63304   -3.20942    3.51328
N      3.85758   -2.11894    2.72223
O      1.60702   -0.58522    3.91759
H      1.76769   -1.39687   -1.28652
H     -0.12142   -0.16561   -0.19901
H      3.60191   -2.30382    0.14120
H     -0.11223    0.18233    2.26720
H      6.86546   -2.54507    3.88498
H      4.91948   -4.31791    4.73072
H      5.66225   -0.70512    0.90416
H      5.03228    0.36150    2.15669
H      6.68006   -0.28178    2.28986
H      2.39459    0.14676    5.62513
H      3.48947    0.27745    4.22507
H      3.23757   -1.30722    5.02402
