29

C      1.60137   -1.35113   -0.19004
C      0.71010   -2.15043    0.53227
C      2.48055   -0.50251    0.49441
C      0.33590   -0.57804    6.12800
C      1.44901   -0.90285    6.91187
C      0.70034   -2.10383    1.93120
C      2.47195   -0.45927    1.88981
C      0.40519   -0.72971    4.74302
C      2.60264   -1.39589    6.30834
C      5.95845   -2.87114    4.23849
C      5.33305   -3.28633    3.08045
C      1.58489   -1.26364    2.62653
C      1.56781   -1.20521    4.11578
C      2.67942   -1.56760    4.91241
C      3.91903   -2.15881    4.38323
N      5.07879   -2.18130    5.03670
N      4.03676   -2.83020    3.18828
H      1.61040   -1.38653   -1.27624
H      0.02404   -2.81205    0.00962
H      3.17230    0.12657   -0.05982
H     -0.57246   -0.19940    6.58916
H      1.41316   -0.78216    7.99146
H      0.01351   -2.73237    2.49250
H      3.16052    0.19295    2.42008
H     -0.44214   -0.44889    4.12285
H      3.46737   -1.67258    6.90240
H      6.98738   -3.02972    4.53479
H      5.67782   -3.84243    2.22046
H      3.30653   -2.94262    2.49726
