39   

C        2.6418317320   -0.4562292676    1.0319767273
C        1.3827128785   -0.9359428768    1.4559290428
C        2.7321176971    0.5501711183    0.0486369588
C       -0.1243244841    2.1194959515   -1.6123081690
C        0.3544120129    0.5715752504   -0.0696779688
C        0.2030781454   -0.4074194825    0.8989605027
C       -0.7134464647    1.2222233691   -0.7545034160
C        1.5569924336    1.0606074382   -0.5018016992
C       -1.3298552714   -2.2499502124    1.7645543328
C       -2.3825657787   -2.8596931459    2.3936589796
C       -2.1415525737    0.8340218407   -0.4655076787
C       -1.2119868786   -0.8221075639    1.2718450525
C       -2.1821123155   -0.6236308648    0.0666428515
C       -2.6021736198   -2.9116194169    3.8950822029
C       -2.8563287555   -1.9002694474   -1.9912665716
C       -3.1008364194   -3.9249214831    1.6017641542
N        1.2814542652    2.0350783256   -1.4682392419
N       -1.8102577932   -1.5542110367   -1.0206595151
O       -4.4223647902   -3.4821642470    1.2892134664
H        3.5464830417   -0.8627089207    1.4691575136
H        1.3291785280   -1.7039896043    2.2181116423
H        3.6950034664    0.9235288007   -0.2756548830
H       -0.6644401041    2.7753812203   -2.2879831881
H       -0.7317301619   -2.9076840411    1.1431802331
H       -2.5417973081    1.5086713284    0.2969404458
H       -2.7582794027    0.9337536581   -1.3627795621
H       -1.5393811887   -0.1627314206    2.0811916395
H       -3.2011748535   -0.8554584213    0.3942334833
H       -3.4401358787   -3.5679047037    4.1496986788
H       -1.7005091617   -3.2804321253    4.3926309469
H       -2.8248574332   -1.9083623477    4.2697673134
H       -3.7275186882   -2.3135594117   -1.4725733964
H       -3.1670993444   -1.0183852887   -2.5592355391
H       -2.4805776923   -2.6529141825   -2.6911476710
H       -2.5576732183   -4.1517784568    0.6784064133
H       -3.1571634521   -4.8478357777    2.1882126601
H        1.9788030410    2.5805073042   -1.9654407762
H       -0.9278583554   -1.2648439878   -1.4437965704
H       -4.8788275285   -4.1356686910    0.7311549990
39   

C        2.6483998048   -0.5602105160    1.0497537807
C        1.3860082326   -1.0620540731    1.4374503546
C        2.7472755648    0.4814629908    0.1045000018
C       -0.0940262938    2.0887979096   -1.5462575724
C        0.3720912494    0.4923789039   -0.0499731394
C        0.2119524119   -0.5198225574    0.8823753132
C       -0.6894511089    1.1575905264   -0.7300782688
C        1.5775729225    1.0040257468   -0.4458907853
C       -1.3188092519   -2.3820165353    1.6981444026
C       -2.2990758035   -2.9050351691    2.4824359463
C       -2.1180175743    0.7460764464   -0.4800337530
C       -1.2067046550   -0.9519097501    1.2189354489
C       -2.1538863468   -0.7313280321   -0.0008885211
C       -2.4223235399   -2.6646791710    3.9762530122
C       -2.7183232157   -1.8614873106   -2.1804607581
C       -2.9534581923   -4.1671315352    1.9760590477
N        1.3098151198    2.0100075744   -1.3818626107
N       -1.7468022404   -1.6283827486   -1.1034664983
O       -4.3554481963   -4.1391134819    2.2548962777
H        3.5490509253   -0.9768346198    1.4856443285
H        1.3258566925   -1.8574143493    2.1706132999
H        3.7125107840    0.8719444200   -0.1914920570
H       -0.6284089995    2.7632610326   -2.2081167145
H       -0.8471444612   -3.0679730695    1.0023190998
H       -2.5368265547    1.3889011360    0.2998368713
H       -2.7215531442    0.8764720893   -1.3820518553
H       -1.5554232925   -0.3046497031    2.0294322927
H       -3.1771993823   -0.9835648932    0.2967814957
H       -3.3517990690   -2.1289413987    4.1899045587
H       -2.4305418614   -3.6135992369    4.5208082961
H       -1.5813908511   -2.0643622206    4.3359888548
H       -3.6667618815   -2.2159117792   -1.7641332059
H       -2.8994233961   -0.9428624689   -2.7464972224
H       -2.3350875633   -2.6218079679   -2.8679389084
H       -2.7959145471   -4.2744476437    0.8977885785
H       -2.5031770874   -5.0329866938    2.4723070282
H        2.0105669247    2.5780731924   -1.8480574954
H       -0.8210570067   -1.3623098068   -1.4417996774
H       -4.7910342094   -4.9411900833    1.9167571208
39   

C        2.5940374950   -0.6402022801    1.0611533492
C        1.3233021903   -1.1538313779    1.4038676690
C        2.7131890713    0.4417461801    0.1645915764
C       -0.0928602146    2.1291881106   -1.4666187746
C        0.3414807371    0.4682496739   -0.0320749008
C        0.1613685690   -0.5828679155    0.8525577146
C       -0.7055104001    1.1653347591   -0.7028575906
C        1.5553236180    0.9923385598   -0.3834387767
C       -1.3907018844   -2.4670903901    1.5668884032
C       -2.2811056935   -2.9539356378    2.4610008752
C       -2.1392217260    0.7466962159   -0.4990274607
C       -1.2645337578   -1.0226559948    1.1442841531
C       -2.1860549981   -0.7500289800   -0.0847866897
C       -2.3619495455   -2.5104929690    3.9082778400
C       -2.7098893306   -1.7813633969   -2.3229237951
C       -2.8873813542   -4.3013735345    2.1528484389
N        1.3074348747    2.0389900565   -1.2795584817
N       -1.7598587314   -1.5995692475   -1.2171273372
O       -4.2773711854   -4.2986946745    2.4877447264
H        3.4854489411   -1.0791749925    1.4940408251
H        1.2470338211   -1.9808131875    2.0995882594
H        3.6847623693    0.8411168148   -0.0967584258
H       -0.6132426264    2.8329387938   -2.1088704390
H       -1.0149734320   -3.1563050479    0.8179948564
H       -2.5724551770    1.3562811032    0.2994531261
H       -2.7247836413    0.9172621529   -1.4061703909
H       -1.6284736637   -0.4010333704    1.9679742887
H       -3.2153698811   -1.0120876334    0.1820887299
H       -3.2956015626   -1.9660732930    4.0771662256
H       -2.3338736615   -3.3748438951    4.5785272065
H       -1.5226001195   -1.8535423535    4.1552507097
H       -3.6679943299   -2.1493153406   -1.9419567544
H       -2.8761356913   -0.8382691814   -2.8520565912
H       -2.3153517347   -2.5128315910   -3.0348647002
H       -2.7670835435   -4.5449061050    1.0922396739
H       -2.3753248196   -5.0719990014    2.7380963735
H        2.0180795598    2.6242967064   -1.7079031629
H       -0.8262541816   -1.3235234388   -1.5245486956
H       -4.6866450981   -5.1561047241    2.2760733595
39   

C        2.5426216820   -0.7219961865    1.1327408769
C        1.2573747882   -1.2350644480    1.4174954987
C        2.6992903674    0.3888451334    0.2782268497
C       -0.0390314970    2.1555709133   -1.3837795758
C        0.3354821695    0.4442355489    0.0078996963
C        0.1183168218   -0.6346387106    0.8499986021
C       -0.6835006160    1.1720525799   -0.6731927788
C        1.5641321734    0.9687208247   -0.2867148776
C       -1.4668023473   -2.5245908052    1.4537128684
C       -2.2368302741   -3.0125051598    2.4468744369
C       -2.1257057764    0.7575434637   -0.5318940824
C       -1.3198745328   -1.0719563784    1.0790533934
C       -2.1951175248   -0.7527836122   -0.1728840540
C       -2.3073527933   -2.4247833821    3.8392619565
C       -2.6418751269   -1.6878644798   -2.4696824341
C       -2.7584178990   -4.4204191520    2.2880358654
N        1.3536292158    2.0470465962   -1.1544596728
N       -1.7362367342   -1.5655909679   -1.3191792732
O       -4.1190259128   -4.4891138766    2.7227065575
H        3.4161940334   -1.1842470448    1.5775707090
H        1.1521522938   -2.0851846964    2.0808108654
H        3.6819935272    0.7874527710    0.0610566490
H       -0.5327714242    2.8843730830   -2.0191034575
H       -1.1757731712   -3.2106052912    0.6653190755
H       -2.5812690344    1.3417853153    0.2731100890
H       -2.6799287992    0.9649438602   -1.4509375709
H       -1.7095273756   -0.4671125996    1.9030620227
H       -3.2347104691   -1.0160260384    0.0491258034
H       -3.2550694447   -1.8943725762    3.9701073953
H       -2.2416165186   -3.2146151057    4.5936154363
H       -1.4840710594   -1.7235391835    4.0048822220
H       -3.6235608069   -2.0453658059   -2.1426172648
H       -2.7639806312   -0.7239602717   -2.9727358367
H       -2.2334708530   -2.4041370130   -3.1891892707
H       -2.6936331809   -4.7408376080    1.2432307158
H       -2.1500468729   -5.1026114050    2.8904450082
H        2.0823627273    2.6397399277   -1.5401339993
H       -0.7865528268   -1.2940137302   -1.5776205107
H       -4.4765763566   -5.3868212519    2.6053072026
39   

C        2.4342899376   -0.8426017207    1.2746360678
C        1.1258851386   -1.3362707024    1.4759884846
C        2.6584368349    0.2867007607    0.4603640511
C        0.0495514468    2.1497376089   -1.3013526942
C        0.3142865286    0.3979209223    0.0651855629
C        0.0306823330   -0.6977390437    0.8651227334
C       -0.6513382157    1.1620057451   -0.6527850075
C        1.5669773233    0.9043923945   -0.1486970804
C       -1.6136030534   -2.5713239554    1.3361124561
C       -2.1711798346   -3.0643541869    2.4555106373
C       -2.1058209644    0.7709228312   -0.6039727044
C       -1.4258733744   -1.1143260144    1.0000419385
C       -2.2200575074   -0.7475708147   -0.2931336663
C       -2.1338312311   -2.3903931638    3.8073593357
C       -2.5489231830   -1.6008438751   -2.6412665627
C       -2.6316845863   -4.5028667151    2.4273416453
N        1.4250062683    2.0079628900   -0.9984760956
N       -1.7121421926   -1.5366277379   -1.4350686250
O       -3.8923365115   -4.6308073805    3.0909007726
H        3.2734836715   -1.3349850593    1.7520873600
H        0.9690804084   -2.2023542557    2.1077161858
H        3.6590401870    0.6698845999    0.3063803693
H       -0.3944797404    2.9030181192   -1.9447660933
H       -1.4952778939   -3.2501869483    0.4983749740
H       -2.5956439285    1.3408794497    0.1911319974
H       -2.6042513365    1.0145842265   -1.5457582398
H       -1.8559576519   -0.5175323623    1.8094833024
H       -3.2751068278   -0.9968732861   -0.1382258436
H       -3.0812729647   -1.8756266976    3.9918569978
H       -1.9773352020   -3.1284900979    4.5998546288
H       -1.3187393153   -1.6623215819    3.8563324966
H       -3.5580972317   -1.9389240320   -2.3847567655
H       -2.6141609587   -0.6202325559   -3.1221362765
H       -2.1168961706   -2.3081611863   -3.3557850229
H       -2.7289739654   -4.8572539281    1.3961896445
H       -1.8898235908   -5.1297704962    2.9322144950
H        2.1850393418    2.5946957327   -1.3288946676
H       -0.7421611321   -1.2820592722   -1.6274371857
H       -4.2082172905   -5.5511708961    3.0640995033
39   

C        2.2261016592   -0.8838082619    1.3125482278
C        0.9044645555   -1.3609134707    1.4583029292
C        2.4955581283    0.2559996518    0.5278076351
C       -0.0192359525    2.1837291252   -1.2985045033
C        0.1685100614    0.4092694048    0.0516139360
C       -0.1606797917   -0.6941247344    0.8232537822
C       -0.7579300920    1.1970284657   -0.6915560775
C        1.4356489007    0.8997327303   -0.1089322245
C       -1.8506844037   -2.5446924085    1.2229462401
C       -2.1322027259   -3.0578817331    2.4311177208
C       -2.2177218922    0.8244573518   -0.7064556095
C       -1.6292546273   -1.0894833980    0.8992217976
C       -2.3644694464   -0.6966837488   -0.4211788411
C       -1.9683770886   -2.3294844042    3.7428514317
C       -2.5935045409   -1.4989431654   -2.7999190590
C       -2.4969907171   -4.5229601681    2.4998700188
N        1.3415342633    2.0178694344   -0.9460076953
N       -1.8214908768   -1.4815180441   -1.5496791697
O       -3.5940627575   -4.7230183699    3.3960727646
H        3.0403909345   -1.3979860364    1.8097640041
H        0.7163144229   -2.2375477183    2.0661323325
H        3.5065749793    0.6262603543    0.4160439114
H       -0.4276527029    2.9517695623   -1.9479946163
H       -1.9215755465   -3.2095625120    0.3688317121
H       -2.7316448599    1.3905752664    0.0760807792
H       -2.6747926037    1.0877377600   -1.6637779740
H       -2.0833079030   -0.4922819501    1.6953395399
H       -3.4284697579   -0.9319534679   -0.3128244140
H       -2.9224859944   -1.8862112432    4.0426842253
H       -1.6440539811   -3.0212382670    4.5261962775
H       -1.2192574474   -1.5366877461    3.6632738147
H       -3.6275661829   -1.7997127423   -2.6030744198
H       -2.5939274569   -0.5110910935   -3.2703309073
H       -2.1508191807   -2.2143294069   -3.4997253129
H       -2.7704907063   -4.8992945002    1.5090108003
H       -1.6315311805   -5.0939095161    2.8507349940
H        2.1219418302    2.5975991779   -1.2392001372
H       -0.8353587117   -1.2540800456   -1.6863739809
H       -3.8473474896   -5.6622118202    3.4330220953
39   

C        2.1666410600   -0.9302705896    1.3308565104
C        0.8337921280   -1.3771743074    1.4683104800
C        2.4684618426    0.1936979556    0.5356651955
C        0.0153107508    2.1516351724   -1.3406440771
C        0.1498109347    0.3906995028    0.0333532441
C       -0.2114440813   -0.6958611689    0.8146135646
C       -0.7511334952    1.1887575173   -0.7297061920
C        1.4290254800    0.8517894083   -0.1196109448
C       -1.9442422094   -2.5047657551    1.2187223705
C       -2.0847103866   -3.0252741850    2.4480079235
C       -2.2182597559    0.8472317895   -0.7565230176
C       -1.6899643422   -1.0594451153    0.8787740914
C       -2.4011156877   -0.6669759351   -0.4549010894
C       -2.0129041052   -2.2471997726    3.7383104210
C       -2.6161396960   -1.4891615074   -2.8282788967
C       -2.3034901957   -4.5178045975    2.5533872609
N        1.3682811911    1.9610658156   -0.9712098053
N       -1.8621099627   -1.4774174047   -1.5670280898
O       -3.3464575019   -4.8093385741    3.4887529084
H        2.9644519309   -1.4558835354    1.8426517039
H        0.6235756880   -2.2424994654    2.0846763333
H        3.4883380674    0.5407320122    0.4300537977
H       -0.3691772923    2.9199592304   -2.0042162988
H       -2.0550637153   -3.1755144599    0.3735180728
H       -2.7283624276    1.4337694417    0.0133614018
H       -2.6589168777    1.1088086603   -1.7219647496
H       -2.1410475604   -0.4433011235    1.6618731113
H       -3.4711676258   -0.8778567199   -0.3565651017
H       -3.0055087611   -1.8685457542    3.9992177890
H       -1.6588196348   -2.8869249168    4.5524256454
H       -1.3223188644   -1.4036327678    3.6525284655
H       -3.6608340186   -1.7591226827   -2.6432963598
H       -2.5825041721   -0.5075092395   -3.3103447571
H       -2.1831206662   -2.2248380867   -3.5129278520
H       -2.5715075847   -4.9381804372    1.5788955235
H       -1.3751678909   -4.9955817780    2.8818679082
H        2.1643427530    2.5198423075   -1.2630145292
H       -0.8687242697   -1.2761730719   -1.6918783016
H       -3.5073553028   -5.7677631021    3.5446215822
39   

C        2.1522003809   -1.0043606121    1.3605118609
C        0.8113323704   -1.4225519867    1.5093055218
C        2.4724985334    0.1051355485    0.5524708579
C        0.0490130704    2.0981654050   -1.3252988506
C        0.1554172906    0.3448549329    0.0607246296
C       -0.2233425019   -0.7280778009    0.8523600521
C       -0.7335973447    1.1561770283   -0.7023049105
C        1.4429334618    0.7785212112   -0.1028736907
C       -1.9801523035   -2.5057105160    1.2663147242
C       -2.0703956355   -3.0376041043    2.4969322104
C       -2.2079863734    0.8462403581   -0.7153838145
C       -1.7077695713   -1.0651672915    0.9235937640
C       -2.4201197575   -0.6626553128   -0.4065538975
C       -2.2329525656   -2.2585620071    3.7783441956
C       -2.6763229724   -1.4904246961   -2.7731543207
C       -2.1004603834   -4.5467288650    2.6013690410
N        1.4000815633    1.8819041497   -0.9630712831
N       -1.9065793289   -1.4857623558   -1.5213176841
O       -3.1687098721   -4.9749214591    3.4522473674
H        2.9418507375   -1.5409296456    1.8736103721
H        0.5874259560   -2.2761546302    2.1369515145
H        3.4986821565    0.4300698399    0.4380049794
H       -0.3235291869    2.8699546092   -1.9916422926
H       -2.0361836104   -3.1827388990    0.4207707556
H       -2.6987895933    1.4463358711    0.0565975211
H       -2.6510793282    1.1137524623   -1.6780789490
H       -2.1435642405   -0.4403591970    1.7080459761
H       -3.4934484589   -0.8515257469   -0.2995829628
H       -3.2791984710   -1.9655932050    3.9055529412
H       -1.9323974675   -2.8634883547    4.6392430712
H       -1.6089658769   -1.3605033632    3.7697796306
H       -3.7226146815   -1.7438387628   -2.5741932358
H       -2.6341125217   -0.5109976508   -3.2590657534
H       -2.2631881797   -2.2349003898   -3.4605419910
H       -2.2310767545   -5.0000609161    1.6136563582
H       -1.1468949152   -4.8984463932    3.0073669307
H        2.2058382192    2.4216325134   -1.2639991326
H       -0.9117792174   -1.3005883434   -1.6587766238
H       -3.2073858304   -5.9462727288    3.5026226147
39   

C        2.1967030488   -1.0598513563    1.2909430351
C        0.8540683507   -1.4548890696    1.4808090828
C        2.5111562661    0.0416197548    0.4696745606
C        0.0652658353    2.0725910116   -1.3375894979
C        0.1846462178    0.3190467285    0.0463143994
C       -0.1875588233   -0.7459347893    0.8509367822
C       -0.7139657194    1.1447693292   -0.6893844199
C        1.4737450871    0.7307944619   -0.1565908666
C       -1.9425931986   -2.5022902916    1.3089161979
C       -2.0738799062   -3.0293370314    2.5407563847
C       -2.1935996241    0.8606635283   -0.6537151266
C       -1.6734229624   -1.0608965791    0.9666018944
C       -2.4223081202   -0.6446811227   -0.3384668562
C       -2.6049840736   -2.2953336437    3.7477466576
C       -2.7748153457   -1.4695741631   -2.6928327287
C       -1.8638705354   -4.5216854723    2.6825835422
N        1.4231356092    1.8334763910   -1.0171345026
N       -1.9586997132   -1.4733510115   -1.4707173737
O       -2.9739754478   -5.1322653270    3.3489847090
H        2.9921708404   -1.6076547022    1.7827801287
H        0.6335159131   -2.3013748719    2.1193399599
H        3.5387812389    0.3490091176    0.3239019474
H       -0.3143189316    2.8506484691   -1.9925481535
H       -1.8354757759   -3.1903015344    0.4772447831
H       -2.6479327442    1.4687204414    0.1341906235
H       -2.6632841935    1.1368044223   -1.6012512857
H       -2.0715802172   -0.4343484771    1.7687623738
H       -3.4944633283   -0.8163265319   -0.1965754828
H       -3.6809212972   -2.1303770902    3.6393831389
H       -2.4300731332   -2.8702075514    4.6622291445
H       -2.1053200233   -1.3298871122    3.8641897552
H       -3.8151153008   -1.7139754729   -2.4549690234
H       -2.7423130397   -0.4898544107   -3.1789201113
H       -2.3944218240   -2.2167056601   -3.3960358635
H       -1.7414296873   -4.9895310406    1.7006076854
H       -0.9487026067   -4.7036129641    3.2544736029
H        2.2283218579    2.3592406305   -1.3432975708
H       -0.9680324706   -1.2981679590   -1.6453955134
H       -2.8543917511   -6.0958822331    3.4171241348
39   

C        2.1865283275   -1.1118326217    1.2496508825
C        0.8389845642   -1.4769476690    1.4620224872
C        2.5113451220   -0.0192235446    0.4210100662
C        0.0810545685    2.0639909471   -1.3468308481
C        0.1843655261    0.3085703166    0.0355781481
C       -0.1978148637   -0.7470773269    0.8474542468
C       -0.7079642231    1.1545243704   -0.6843616380
C        1.4788708676    0.6913938230   -0.1892306823
C       -1.9770027743   -2.4691555298    1.3323553364
C       -2.0797837011   -2.9874852109    2.5749779914
C       -2.1931483626    0.9054810412   -0.6203804723
C       -1.6884928809   -1.0296828515    0.9891838350
C       -2.4524188987   -0.5939770316   -0.3002259471
C       -2.8481250033   -2.3492850222    3.7085449080
C       -2.8665271522   -1.4103256677   -2.6475592010
C       -1.6614983104   -4.4309187606    2.7595511455
N        1.4385516880    1.7941513141   -1.0499560554
N       -2.0288010725   -1.4330294169   -1.4403972012
O       -2.7172112406   -5.2005560313    3.3452605081
H        2.9777068808   -1.6756566554    1.7302303369
H        0.6121229394   -2.3164797784    2.1070847883
H        3.5429391853    0.2654892177    0.2581683252
H       -0.2918131231    2.8507488898   -1.9951789471
H       -1.7949585208   -3.1591503481    0.5153994043
H       -2.6177076638    1.5242818739    0.1757003734
H       -2.6737980119    1.1929018933   -1.5590213662
H       -2.0544502579   -0.4008331886    1.8049169095
H       -3.5254208750   -0.7406593132   -0.1383617871
H       -3.9195481812   -2.3683815227    3.4884171872
H       -2.6743037953   -2.8823572666    4.6482656212
H       -2.5336026394   -1.3121723368    3.8518122012
H       -3.9077741801   -1.6304000469   -2.3908983818
H       -2.8198715209   -0.4316589093   -3.1346283616
H       -2.5163085234   -2.1661355940   -3.3571418051
H       -1.3916903231   -4.8791452029    1.7980425246
H       -0.7779828592   -4.4705092951    3.4040173221
H        2.2498198952    2.3013860019   -1.3901288934
H       -1.0378063911   -1.2806949296   -1.6333917962
H       -2.4617988235   -6.1356038441    3.4341481493
39   

C        2.1429677844   -1.1426898301    1.2569945554
C        0.7862295191   -1.4679055642    1.4740358535
C        2.4966654354   -0.0610339173    0.4265788775
C        0.1231011522    2.0936422308   -1.3311041116
C        0.1782998090    0.3346265249    0.0496080355
C       -0.2323906938   -0.7096032258    0.8625907821
C       -0.6906080846    1.2082489296   -0.6657108191
C        1.4830109173    0.6789399047   -0.1798931655
C       -2.0664728464   -2.3818022609    1.3527607826
C       -2.1058579612   -2.9123392617    2.5994998578
C       -2.1824527371    1.0059187719   -0.5942522039
C       -1.7315239564   -0.9484700837    1.0096575132
C       -2.4874071210   -0.4849998006   -0.2748854323
C       -3.0202441777   -2.4268648417    3.7029087284
C       -2.9344013112   -1.2837287111   -2.6227918532
C       -1.5083420808   -4.2929856814    2.7783271231
N        1.4729446241    1.7825162188   -1.0401218853
N       -2.0943469837   -1.3347152014   -1.4181434622
O       -2.4564777298   -5.1973777141    3.3562765902
H        2.9188296499   -1.7288276132    1.7359067610
H        0.5409908527   -2.2990652753    2.1219177491
H        3.5356048262    0.1933389604    0.2602424750
H       -0.2281139791    2.8921569639   -1.9771173116
H       -1.8838729699   -3.0665752824    0.5314947654
H       -2.5831870653    1.6366349523    0.2047923616
H       -2.6583857082    1.3097414544   -1.5301301845
H       -2.0739628815   -0.3163098884    1.8338126764
H       -3.5637627363   -0.5984763494   -0.1088313740
H       -4.0529455858   -2.7140591908    3.4832759728
H       -2.7313350879   -2.8588397783    4.6660810292
H       -2.9688225927   -1.3380867366    3.7902513230
H       -3.9814243507   -1.4705940644   -2.3633925432
H       -2.8575808587   -0.3065511852   -3.1090237002
H       -2.6105665669   -2.0496074061   -3.3341316764
H       -1.1822095627   -4.6967021991    1.8145097499
H       -0.6277873677   -4.2241865490    3.4242029157
H        2.2980173605    2.2650633709   -1.3830267504
H       -1.0996612650   -1.2134580344   -1.6142030836
H       -2.0859592985   -6.0943557712    3.4309280381
39   

C        2.1137917737   -1.1422480133    1.2666628750
C        0.7523997836   -1.4348608018    1.4983169272
C        2.4839385862   -0.0969781729    0.3989026203
C        0.1450131002    2.0456732487   -1.4162440505
C        0.1707609392    0.3281028829    0.0171194510
C       -0.2569184345   -0.6829227795    0.8635798514
C       -0.6831728415    1.1980371717   -0.7200925208
C        1.4811662189    0.6404834451   -0.2275484227
C       -2.1359685346   -2.3103071038    1.3994249545
C       -2.1105886607   -2.8590092058    2.6482842726
C       -2.1781786484    1.0312710498   -0.6333882073
C       -1.7615495494   -0.8922936853    1.0204140888
C       -2.5127201364   -0.4434882658   -0.2731337071
C       -3.1377547199   -2.5669604730    3.7235880448
C       -2.9873119927   -1.2914402241   -2.5991165876
C       -1.3421176604   -4.1553834894    2.8070572619
N        1.4895985891    1.7161581127   -1.1220046144
N       -2.1428852409   -1.3289297940   -1.3970356609
O       -2.1995070732   -5.2142895037    3.2485263464
H        2.8803998171   -1.7251997967    1.7640833690
H        0.5001844816   -2.2358671090    2.1781127626
H        3.5267216218    0.1326502580    0.2210407695
H       -0.1929700355    2.8316343913   -2.0842723229
H       -1.9895019846   -3.0031533193    0.5775929324
H       -2.5592351695    1.6913959408    0.1513633704
H       -2.6537153008    1.3208067872   -1.5739875110
H       -2.0908368964   -0.2382957081    1.8334433854
H       -3.5905337886   -0.5297082378   -0.1003618546
H       -4.1162219695   -2.9493114501    3.4175636476
H       -2.8565023117   -3.0336436465    4.6727715667
H       -3.2159291274   -1.4875335399    3.8823154387
H       -4.0370407334   -1.4475041449   -2.3304907589
H       -2.8906449942   -0.3297783081   -3.1119994588
H       -2.6841489173   -2.0834376147   -3.2907121058
H       -0.8874222167   -4.4471539025    1.8548289468
H       -0.5343342582   -4.0118251000    3.5309660145
H        2.3227846645    2.1707804842   -1.4829922888
H       -1.1467252028   -1.2342849247   -1.6001531802
H       -1.7142238612   -6.0554550213    3.3145082221
39   

C        2.0756688707   -1.0857542403    1.3672449297
C        0.7053407522   -1.3304652276    1.5997498774
C        2.4805304546   -0.1043460044    0.4437174213
C        0.2169716334    2.0034586987   -1.4994811232
C        0.1814222813    0.3544122447    0.0134107778
C       -0.2816614406   -0.6022176551    0.9052175380
C       -0.6402626128    1.2145208008   -0.7703046187
C        1.5022643454    0.6212203134   -0.2321248038
C       -2.2372253735   -2.1663169520    1.4674531238
C       -2.1432021567   -2.7817115859    2.6928457439
C       -2.1392600130    1.1019673134   -0.6824217565
C       -1.7951592211   -0.7739116733    1.0488081655
C       -2.5198479763   -0.3464714597   -0.2695572260
C       -3.2081754624   -2.7165210859    3.7733487859
C       -3.0110241754   -1.2625166738   -2.5670211580
C       -1.2591610926   -4.0121354999    2.7487657151
N        1.5489962876    1.6495701231   -1.1790978856
N       -2.1700339131   -1.2786229435   -1.3619660834
O       -2.0289132750   -5.1918316953    3.0094794442
H        2.8221118717   -1.6548469418    1.9094242016
H        0.4332283791   -2.0735421381    2.3323572342
H        3.5304451766    0.0893944190    0.2651543776
H       -0.0931745546    2.7678836139   -2.2049022431
H       -2.2529290209   -2.8571833809    0.6312360190
H       -2.5001122760    1.8025757545    0.0763375473
H       -2.6028116028    1.3716126656   -1.6348378964
H       -2.1193224886   -0.0848654836    1.8344566814
H       -3.6012200827   -0.3933634379   -0.1039020582
H       -4.1582527666   -3.0936626457    3.3831048460
H       -2.9246642254   -3.3095544077    4.6484693304
H       -3.3469595314   -1.6798501566    4.0934741227
H       -4.0649176881   -1.3817594290   -2.2957638468
H       -2.8887701379   -0.3227372852   -3.1138419854
H       -2.7273825317   -2.0865147062   -3.2288672974
H       -0.7348375286   -4.1427337239    1.7963471336
H       -0.5053215213   -3.8849252653    3.5315316800
H        2.3978574338    2.0624389725   -1.5534769970
H       -1.1709661352   -1.2186500591   -1.5641628553
H       -1.4660071638   -5.9859091762    3.0104828376
