18   
Generated by ForceBalance from scan.xyz: Frame 1 of 9
C       -2.4101232001    0.9356275295    0.2522709422
C        0.3294290447    1.2351355836    1.4880812000
C        1.1048792789    1.7925086370    3.4630299473
C        0.1411477887   -0.3313273243   -0.4809650753
C       -0.0000624058    1.1036607959    0.0288871004
N       -3.2846235681    0.2770208998    0.6634024497
N        1.2797925713    1.9737848066    1.9933102949
N       -0.2219049668    0.4209586525    2.5198937455
N       -0.3133083817    1.5571994105    3.5038709339
N       -1.3682186301    1.6296516688   -0.2422762386
O        1.8973198043    1.9204356633    4.3535533186
H       -0.5450009904   -1.0116007040    0.0310050096
H       -0.0749561070   -0.3623939777   -1.5515435984
H        1.1618254235   -0.6813709140   -0.3099560931
H        0.6851021040    1.7621802649   -0.5077646253
H       -1.1894105209    0.1510305343    2.3039325265
H       -0.5241390656    1.1302557238    4.4143696733
H       -1.4554795682    2.6348483099   -0.1156682336
18   
Generated by ForceBalance from scan.xyz: Frame 2 of 9
C       -2.2767769198    0.8523701065    0.1136624623
C        0.2481525905    1.0101828272    1.7478643125
C        0.7930333783    1.4688144793    3.8012916705
C        0.3431890172   -0.4212033862   -0.3368206842
C        0.1390219153    0.9773953060    0.2463404556
N       -3.2019304489    0.1848904856    0.3714122386
N        1.0777064104    1.7605184480    2.4144187838
N       -0.4433998478    0.1131182461    2.5846281478
N       -0.5505345784    0.9661245821    3.7668270869
N       -1.1666018280    1.5471442749   -0.1948054369
O        1.4680041876    1.6859482645    4.7776259131
H       -0.4218406106   -1.1205853475    0.0111773454
H        0.2987737522   -0.3733770781   -1.4274268688
H        1.3200493253   -0.8054496805   -0.0337873852
H        0.9025624867    1.6575489066   -0.1343245963
H       -1.3856895728   -0.1016113187    2.2436052373
H       -0.7094961636    0.3747650141    4.5859461608
H       -1.2557244425    2.5475220820   -0.0358332258
18   
Generated by ForceBalance from scan.xyz: Frame 3 of 9
C       -2.2774623363    0.9008472759    0.0878796941
C        0.2225904574    0.9986790484    1.7401490177
C        0.7449115883    1.5305807278    3.7862989695
C        0.3175291557   -0.4415232803   -0.3449691210
C        0.1354383075    0.9609661964    0.2348290408
N       -3.2146969340    0.2572865347    0.3627894846
N        1.0116537911    1.7899899027    2.4070548731
N       -0.5007811188    0.1273466144    2.5478467585
N       -0.4845157789    0.8077180189    3.8043603203
N       -1.1491071305    1.5597656914   -0.2312885185
O        1.3682042841    1.8898312089    4.7610557673
H       -0.4711131913   -1.1223343674   -0.0132247841
H        0.2977940445   -0.3930369509   -1.4362456670
H        1.2780262896   -0.8500701603   -0.0216855517
H        0.9199060512    1.6239072038   -0.1327446325
H       -1.4523768394   -0.0810828124    2.2358611129
H       -0.5517002813    0.1621578936    4.5899436908
H       -1.2109242488    2.5648375048   -0.0893758045
18   
Generated by ForceBalance from scan.xyz: Frame 4 of 9
C       -2.2560357108    0.9433760460    0.0978664971
C        0.2282789990    0.9847483316    1.7596608267
C        0.6796554704    1.5990331913    3.7957153832
C        0.3105521263   -0.4614041586   -0.3274585483
C        0.1545550119    0.9438057219    0.2516697495
N       -3.2059928031    0.3229456633    0.3822050893
N        0.9652647541    1.8244232119    2.4247040056
N       -0.5177280281    0.1254097419    2.5474733871
N       -0.4011948864    0.6715617611    3.8454951165
N       -1.1121503349    1.5718392139   -0.2272928723
O        1.2196120969    2.0823893793    4.7696214284
H       -0.4971982095   -1.1241703523   -0.0054381456
H        0.3054302009   -0.4121204652   -1.4188556725
H        1.2573052847   -0.8930717925    0.0065655996
H        0.9558681528    1.5902568066   -0.1087457835
H       -1.4786593993   -0.0725508070    2.2622711357
H       -0.3501753443   -0.0235302469    4.5854622231
H       -1.1487688065    2.5786521520   -0.0875956584
18   
Generated by ForceBalance from scan.xyz: Frame 5 of 9
C       -2.2665021334    0.9826158012    0.0599955800
C        0.1948328535    0.9654581418    1.7353315120
C        0.5498134213    1.6490964259    3.7704598552
C        0.2679404553   -0.4869781029   -0.3500195546
C        0.1396569595    0.9216540287    0.2260228740
N       -3.2306777989    0.3872739064    0.3499733839
N        0.8800460900    1.8453960099    2.4049603006
N       -0.5798244037    0.1240737181    2.5117056257
N       -0.3586281954    0.5560300869    3.8276944013
N       -1.1066074916    1.5797035038   -0.2681772726
O        0.9841565900    2.2373064752    4.7397975365
H       -0.5603270306   -1.1287392877   -0.0379224219
H        0.2796232018   -0.4394179179   -1.4414489216
H        1.1987569509   -0.9424084512   -0.0026115943
H        0.9596292519    1.5493123607   -0.1257874631
H       -1.5503727044   -0.0604089836    2.2555077933
H       -0.2208521321   -0.1687108247    4.5238589822
H       -1.1174865717    2.5871400082   -0.1272110392
18   
Generated by ForceBalance from scan.xyz: Frame 6 of 9
C       -2.4399797951    0.6179647195   -0.0437987156
C        0.0124442322    1.0107040401    1.8039195770
C        0.8039719114    0.9674333373    3.8257749228
C        0.3213248841   -0.3466815748   -0.2829846875
C       -0.0721329530    1.0190571466    0.2927127547
N       -3.3165742382   -0.1414671946    0.1073904289
N        1.1321129922    1.1058410475    2.4557391889
N       -1.1086885807    0.8951588560    2.6039926340
N       -0.5845189763    0.6368949260    3.8902124463
N       -1.3946964352    1.4453608837   -0.2174557153
O        1.5232414768    1.0965642360    4.7947601987
H       -0.3769218813   -1.1271318650    0.0329857297
H        0.3221620739   -0.2994908083   -1.3746083524
H        1.3199052621   -0.6102499909    0.0703460651
H        0.6450287310    1.7666351891   -0.0536885045
H       -1.8579695517    0.2657120751    2.3151918573
H       -1.1012104101    1.0833735997    4.6435279898
H       -1.6196792753    2.4226990915   -0.0552424963
18   
Generated by ForceBalance from scan.xyz: Frame 7 of 9
C       -2.4412790146    0.6439005257   -0.0436547371
C        0.0229814004    1.0078378693    1.8092371179
C        0.7841496819    1.0366385392    3.8380779706
C        0.3026313256   -0.3666070416   -0.2664111602
C       -0.0652555517    1.0106092909    0.2989678173
N       -3.3324243752   -0.1004753291    0.0970254179
N        1.1378753487    1.1349318122    2.4641667453
N       -1.1050997340    0.9521498218    2.6238147895
N       -0.5470136358    0.5058241862    3.8653080961
N       -1.3823345483    1.4554362497   -0.2073222880
O        1.4560861849    1.2849169785    4.8149904502
H       -0.4074517694   -1.1325554741    0.0583944174
H        0.3001771773   -0.3278185474   -1.3583781234
H        1.2981673748   -0.6446991808    0.0846674627
H        0.6624886457    1.7436371725   -0.0560164653
H       -1.8569183522    0.3394897260    2.3011391652
H       -1.0786581775    0.8608257675    4.6594482692
H       -1.5917219178    2.4374915678   -0.0535785151
18   
Generated by ForceBalance from scan.xyz: Frame 8 of 9
C       -2.4397363366    0.7172310009   -0.0720386960
C        0.0352002772    1.0276375083    1.7925476903
C        0.7318964535    1.1806627488    3.8444825257
C        0.2396569924   -0.4156457154   -0.2424533383
C       -0.0527033198    0.9941966546    0.2857222313
N       -3.3573367689    0.0022489070    0.0483518444
N        1.1158667344    1.3131300661    2.4595036323
N       -1.0866037120    0.9062727742    2.6338453766
N       -0.4185434093    0.3209603711    3.7948255668
N       -1.3507673516    1.4915937870   -0.2228263698
O        1.2842687896    1.6023037962    4.8309092374
H       -0.4985256235   -1.1393756502    0.1143199488
H        0.2210318141   -0.4084872206   -1.3350423279
H        1.2277972110   -0.7305821313    0.0991427133
H        0.7099847315    1.6793387327   -0.0899200419
H       -1.7895334875    0.2512307178    2.2799289097
H       -0.9945098745    0.4890778402    4.6233402788
H       -1.5238573383    2.4789151465   -0.0567213131
18   
Generated by ForceBalance from scan.xyz: Frame 9 of 9
C       -2.4241687536    0.8169319748   -0.0935913872
C        0.0534542061    1.0790507422    1.7552976777
C        0.6516393371    1.3318572856    3.8491839459
C        0.1828054012   -0.4607591077   -0.2166924939
C       -0.0259963070    0.9827073541    0.2557371045
N       -3.3733684984    0.1472710968    0.0396422895
N        1.0628983234    1.5504624951    2.4354185010
N       -1.0407799419    0.8681078781    2.6440073848
N       -0.1924072649    0.1780632027    3.6804459426
N       -1.2984731915    1.5328745090   -0.2686251257
O        1.0071821290    1.8917794905    4.8481226667
H       -0.5929255191   -1.1285864138    0.1678415721
H        0.1593633469   -0.4943102842   -1.3087133062
H        1.1531974941   -0.8197147578    0.1330180583
H        0.7726922590    1.6113593429   -0.1429523140
H       -1.6940767831    0.1645057514    2.2803541722
H       -0.7757530081    0.1080587425    4.5236303302
H       -1.4202380945    2.5308611293   -0.1197564117
