45   

C       -2.7926434305   -1.1499853946   -0.8874513868
C       -1.7908688949   -0.1097958699   -0.6153856111
C       -0.6460821783   -0.6448743943   -0.0525814234
C       -4.0938190493   -0.9901787133   -1.5270882978
C       -2.3850436630   -2.3895688072   -0.5046180905
C       -4.4824332948   -3.3174970212   -1.2264756619
C       -7.2922861034   -1.8417457363   -1.0625456904
C       -7.9017777202   -0.7340216601   -0.6047004323
C       -2.0295352668    1.3570893272   -0.8871307654
C       -8.6139601185   -0.7484001083    0.7275725271
C       -7.7940166239    0.5871169847   -1.3289484597
C       -0.5642990833   -5.5979683489   -3.2133622818
C        0.6034623638    0.0770999565    0.3753708561
C       -6.2911451490   -1.9302288140   -2.1857226981
C       -2.7649041709   -4.8454094236   -0.2952143904
C       -2.2262245200   -5.6265988853   -1.4943187563
N       -4.9487979745   -2.0732064546   -1.6220292757
N       -3.2132959553   -3.5045451243   -0.6797367865
O       -4.4042560662    0.0810143108   -2.0286908460
O       -5.2124396456   -4.2935003608   -1.3587829912
O        1.7100218646   -0.4734956160   -0.3364613302
O       -1.0690441079   -4.9743420176   -2.0297539376
S       -0.7641638637   -2.3896928751    0.1806368346
H       -7.4694788925   -2.7711995268   -0.5320099541
H       -3.0136643576    1.6508638946   -0.5100623654
H       -1.2916012683    1.9942825372   -0.3971844181
H       -1.9995365499    1.5446141061   -1.9645213978
H       -8.2940302803    0.1014902662    1.3381816247
H       -9.6950701854   -0.6837419151    0.5723204124
H       -8.3949115087   -1.6660913772    1.2822052247
H       -8.4351771313    0.5796694635   -2.2149264717
H       -8.1152980872    1.4082878950   -0.6815215096
H       -6.7679156755    0.7968684258   -1.6336371312
H        0.3495024150   -5.0892901356   -3.5350821978
H       -1.3004996572   -5.5360175326   -4.0210098232
H       -0.3279295135   -6.6497145254   -3.0227262430
H        0.5395108058    1.1475658776    0.1690910908
H        0.7550178101   -0.0524473731    1.4516299037
H       -6.3598480276   -1.0607434680   -2.8472860059
H       -6.5293003345   -2.7945215323   -2.8157498536
H       -3.5995956810   -5.4000855838    0.1460845798
H       -1.9935372031   -4.7930669321    0.4778069759
H       -3.0052405300   -5.7082342045   -2.2598920320
H       -1.9586979749   -6.6372639416   -1.1700104586
H        1.4974907825   -0.5482059309   -1.2841600144
45   

C       -2.8771434430   -1.2079531178   -0.8729153141
C       -1.8975153031   -0.1583258104   -0.5578507183
C       -0.7674100848   -0.6850073366    0.0414861816
C       -4.1809303447   -1.0536214607   -1.5105976467
C       -2.4588655296   -2.4479090337   -0.5004025996
C       -4.5151733934   -3.4016154059   -1.3008084453
C       -7.3296439464   -1.9005556582   -1.1261654184
C       -7.8734741803   -0.7660393769   -0.6482644156
C       -2.1236405914    1.3028700868   -0.8677170121
C       -8.2849444352   -0.6582940078    0.8009652283
C       -7.8854241554    0.4963427040   -1.4745195682
C       -0.5074556143   -5.5904213218   -3.1988820375
C        0.4543301302    0.0428477976    0.5313733610
C       -6.3334065207   -2.0220733350   -2.2529780626
C       -2.8026750183   -4.9132107993   -0.3361208631
C       -2.2169950883   -5.6694014685   -1.5291173337
N       -4.9958130210   -2.1582011309   -1.6797194115
N       -3.2617844760   -3.5743930996   -0.7155013188
O       -4.5469267262    0.0424855040   -1.9119114825
O       -5.2216563987   -4.3881602899   -1.4748133624
O        1.5479753344   -0.2982367746   -0.3181311363
O       -1.0561265470   -4.9910816935   -2.0222935729
S       -0.8630173160   -2.4340771752    0.2410774847
H       -7.4544659794   -2.8005474027   -0.5336520726
H       -2.9663658277    1.6788660716   -0.2796349639
H       -1.2470093285    1.9145255741   -0.6487272816
H       -2.3574251370    1.4272151576   -1.9291788543
H       -7.9384756321    0.2900342390    1.2230205881
H       -9.3748600355   -0.7033017396    0.8835122389
H       -7.8537958540   -1.4725035327    1.3915645379
H       -8.6736561625    1.1689240762   -1.1230486988
H       -6.9270361348    1.0156660573   -1.3869926664
H       -8.0810319994    0.2745267666   -2.5274959010
H        0.4057364195   -5.0617231165   -3.4884386282
H       -1.2218315725   -5.5310167112   -4.0260901114
H       -0.2578111941   -6.6402486671   -3.0146966303
H        0.3054450350    1.1248917946    0.5240896366
H        0.6765467955   -0.2557648506    1.5607000785
H       -6.3857798580   -1.1591514322   -2.9244284069
H       -6.5802827348   -2.8936746486   -2.8693854319
H       -3.6407762381   -5.4869859250    0.0731511856
H       -2.0550486913   -4.8597396875    0.4597607185
H       -2.9722271027   -5.7534702722   -2.3178985145
H       -1.9420654224   -6.6798337941   -1.2103262592
H        1.2708379212   -0.2766755736   -1.2515807877
45   

C       -2.9296982778   -1.2410502535   -0.8746419714
C       -1.9657335720   -0.1866832152   -0.5285133268
C       -0.8401100294   -0.7111212180    0.0811020633
C       -4.2265301391   -1.0898509411   -1.5271470935
C       -2.5046517787   -2.4822970448   -0.5139917084
C       -4.5380635973   -3.4447874617   -1.3608358764
C       -7.3522931982   -1.9263558098   -1.1733119564
C       -7.8220156806   -0.7752251964   -0.6518178656
C       -2.1992687940    1.2766404500   -0.8224370824
C       -7.9168183328   -0.5734496941    0.8415170302
C       -7.9534340555    0.4504869782   -1.5211711406
C       -0.4828604746   -5.5736128023   -3.2189397971
C        0.3661660391    0.0216463469    0.6010437787
C       -6.3611734221   -2.0661127679   -2.3058903756
C       -2.8285695651   -4.9525036371   -0.3851639047
C       -2.2166152472   -5.6897878650   -1.5766635532
N       -5.0245620853   -2.2009925416   -1.7303615293
N       -3.2928655509   -3.6134418693   -0.7573127969
O       -4.6045143310    0.0106628340   -1.9048593652
O       -5.2333961796   -4.4350110021   -1.5568060763
O        1.4777935633   -0.2998823244   -0.2326079076
O       -1.0539536925   -4.9954308230   -2.0424828717
S       -0.9210162699   -2.4638246046    0.2530759863
H       -7.4364776101   -2.8122768441   -0.5531292049
H       -3.0417935570    1.6428056614   -0.2279182665
H       -1.3240304520    1.8893189796   -0.6005616172
H       -2.4363540604    1.4115550834   -1.8818458437
H       -7.4736845819    0.3866930225    1.1230033142
H       -8.9652037157   -0.5828659946    1.1535656347
H       -7.3837638494   -1.3657945388    1.3759193100
H       -8.7718549886    1.0796860071   -1.1585352619
H       -7.0290703385    1.0349456747   -1.4932624986
H       -8.1734353738    0.1772362721   -2.5572816017
H        0.4294176826   -5.0326646000   -3.4880060034
H       -1.1857819020   -5.5094621164   -4.0555541535
H       -0.2261512707   -6.6235189327   -3.0452481474
H        0.2075467095    1.1023517428    0.6036717176
H        0.5727514573   -0.2870540334    1.6306500655
H       -6.4095031191   -1.2048818321   -2.9802399676
H       -6.6154182188   -2.9403435684   -2.9155233760
H       -3.6683155527   -5.5380805089    0.0035336644
H       -2.0947964136   -4.9017803416    0.4236871248
H       -2.9579905331   -5.7713569552   -2.3787468092
H       -1.9378685008   -6.7013505477   -1.2648635346
H        1.2170554870   -0.2704642207   -1.1705572725
45   

C       -2.9899623046   -1.2518464925   -0.8589241825
C       -2.0435692638   -0.1884961879   -0.4924342834
C       -0.9195759809   -0.7036456244    0.1280009379
C       -4.2837184672   -1.1115992641   -1.5203355744
C       -2.5528921085   -2.4906622920   -0.5034085898
C       -4.5595245532   -3.4740656529   -1.3883604851
C       -7.3797965378   -1.9313141983   -1.2037020041
C       -7.7810164913   -0.7606775121   -0.6586433069
C       -2.2865781253    1.2738566019   -0.7830574533
C       -7.5627591681   -0.4541455488    0.8034938741
C       -8.1056412265    0.4064022937   -1.5584969202
C       -0.4629265493   -5.5484239603   -3.1979936104
C        0.2703273828    0.0404796605    0.6690035310
C       -6.3914154749   -2.1092003013   -2.3367333142
C       -2.8489758950   -4.9655065336   -0.3906425297
C       -2.2130287498   -5.6925656574   -1.5757351672
N       -5.0570044695   -2.2340226711   -1.7551682081
N       -3.3225777971   -3.6303702680   -0.7653387596
O       -4.6873760689   -0.0092170630   -1.8659257448
O       -5.2391957980   -4.4715959402   -1.6008870588
O        1.3982688894   -0.2652171549   -0.1485761832
O       -1.0523445251   -4.9836295140   -2.0241110336
S       -0.9799134413   -2.4584789436    0.2846637197
H       -7.4137918440   -2.7914824020   -0.5438690206
H       -3.1178273826    1.6388191066   -0.1722150615
H       -1.4073010042    1.8876808827   -0.5806904029
H       -2.5442557836    1.4079629964   -1.8377110297
H       -6.4924373201   -0.4711501200    1.0304385948
H       -7.9576653144    0.5342218809    1.0576444096
H       -8.0677614551   -1.2002752593    1.4239596279
H       -9.0872980210    0.8133184329   -1.2984955928
H       -7.3545573746    1.1933509425   -1.4353508576
H       -8.1309513271    0.1107950728   -2.6110588218
H        0.4456415093   -4.9954510934   -3.4548506574
H       -1.1581864424   -5.4876212472   -4.0412414613
H       -0.1958919465   -6.5962791743   -3.0275352536
H        0.0990217619    1.1192971679    0.6734868314
H        0.4646382177   -0.2701058943    1.7004402663
H       -6.4311291503   -1.2612725960   -3.0282869658
H       -6.6534319242   -2.9950947378   -2.9258655986
H       -3.6876939220   -5.5611674695   -0.0152179009
H       -2.1269263740   -4.9095536278    0.4283412420
H       -2.9427752563   -5.7803570946   -2.3877698470
H       -1.9269414611   -6.7017652753   -1.2629346577
H        1.1516019444   -0.2361445107   -1.0903246746
45   

C       -3.0264576265   -1.2597714899   -0.8632989820
C       -2.0901764458   -0.1928214173   -0.4817225021
C       -0.9732237097   -0.7037779675    0.1549648928
C       -4.3108372059   -1.1245787037   -1.5440718049
C       -2.5893911116   -2.4969897063   -0.5021128013
C       -4.5796357262   -3.4880504680   -1.4140278869
C       -7.4066680982   -1.9621556499   -1.2489227611
C       -7.7223388319   -0.8104249921   -0.6036181701
C       -2.3372450575    1.2684913654   -0.7738803217
C       -7.2294656337   -0.5097572625    0.7919206408
C       -8.1100536615    0.3874106650   -1.4390587722
C       -0.4575385674   -5.5391167451   -3.1804929024
C        0.2058519865    0.0438194866    0.7149344726
C       -6.4077186245   -2.1315629033   -2.3786375390
C       -2.8753937434   -4.9735440371   -0.3971339137
C       -2.2228422397   -5.6960054426   -1.5760161367
N       -5.0767405031   -2.2500134623   -1.7880888906
N       -3.3502123914   -3.6398134470   -0.7755147929
O       -4.7135704212   -0.0240336253   -1.8967440435
O       -5.2531356033   -4.4881854841   -1.6341050901
O        1.3541366656   -0.2816229941   -0.0659321271
O       -1.0604222557   -4.9810903838   -2.0102086439
S       -1.0284827019   -2.4590480791    0.3090289515
H       -7.4806021359   -2.8613661830   -0.6469581533
H       -3.1842235090    1.6258103506   -0.1803836454
H       -1.4674374939    1.8884272493   -0.5506717620
H       -2.5731164644    1.4031659031   -1.8335699300
H       -6.6253902491    0.4026103958    0.8004343610
H       -8.0792676456   -0.3787034110    1.4679657536
H       -6.6088623808   -1.3303768153    1.1646029446
H       -9.1484107345    0.6603463632   -1.2296582848
H       -7.4696300953    1.2442499274   -1.2072516307
H       -8.0233302397    0.1814498169   -2.5094382685
H        0.4513747859   -4.9817552726   -3.4263985819
H       -1.1448103666   -5.4776344508   -4.0302194166
H       -0.1882266687   -6.5866252630   -3.0114915978
H        0.0411934608    1.1234215284    0.6964541572
H        0.3704422287   -0.2502664016    1.7563369348
H       -6.4512985449   -1.2824784564   -3.0686261003
H       -6.6593818194   -3.0186322613   -2.9705406762
H       -3.7158642882   -5.5733277195   -0.0323151778
H       -2.1630364269   -4.9159701903    0.4301644070
H       -2.9429980434   -5.7859067025   -2.3963504961
H       -1.9357051893   -6.7043860363   -1.2615349279
H        1.1346171486   -0.2633691010   -1.0146597990
45   

C       -3.0643897881   -1.2257906758   -0.9198450152
C       -2.1359520932   -0.1560977003   -0.5272489128
C       -1.0379021442   -0.6609882083    0.1463752666
C       -4.3300172963   -1.0970022953   -1.6364421325
C       -2.6403596647   -2.4589857712   -0.5302200804
C       -4.6088138631   -3.4577122137   -1.4789790305
C       -7.4436038697   -1.9519709347   -1.3959383502
C       -7.6799501561   -0.8742902265   -0.5961909169
C       -2.3731852298    1.3013596476   -0.8451960140
C       -6.9845601792   -0.6726639680    0.7301888047
C       -8.1602837923    0.3829333732   -1.2812428563
C       -0.4492733695   -5.5334448535   -3.1209440680
C        0.1280108406    0.0904488438    0.7286861375
C       -6.4111635456   -2.1132073830   -2.5014135988
C       -2.9330120429   -4.9339556924   -0.4033201587
C       -2.2529784764   -5.6704734668   -1.5578149886
N       -5.0927689783   -2.2237398560   -1.8826012320
N       -3.3962264186   -3.6038360361   -0.8081422423
O       -4.7222814239   -0.0006561982   -2.0131172218
O       -5.2786932827   -4.4595174537   -1.7031902847
O        1.3025936908   -0.2747172552    0.0066400005
O       -1.0791104267   -4.9620706816   -1.9714557953
S       -1.1020009364   -2.4139405856    0.3221996080
H       -7.6311471623   -2.9068637312   -0.9170883083
H       -3.2391691478    1.6655413978   -0.2842006597
H       -1.5115148504    1.9246289697   -0.6010113578
H       -2.5744974039    1.4225358100   -1.9136291172
H       -6.3379088178    0.2096384238    0.6988450226
H       -7.7251493655   -0.5433398413    1.5246680898
H       -6.3627465559   -1.5404475638    0.9704565428
H       -9.2265399888    0.5264444667   -1.0842697468
H       -7.6174539162    1.2605352536   -0.9166456469
H       -8.0126924976    0.3261841622   -2.3640188702
H        0.4667664331   -4.9806973003   -3.3502621836
H       -1.1154515573   -5.4790978676   -3.9877850669
H       -0.1867778217   -6.5797818942   -2.9348115294
H       -0.0203635327    1.1707905418    0.6684231016
H        0.2465768610   -0.1713434408    1.7848679502
H       -6.4547786621   -1.2612471446   -3.1887281622
H       -6.6391562370   -3.0023976012   -3.0997716560
H       -3.7831656230   -5.5285123276   -0.0526276626
H       -2.2410721462   -4.8682679302    0.4405196229
H       -2.9529994621   -5.7686109891   -2.3944798487
H       -1.9752632738   -6.6756934808   -1.2252514619
H        1.1232561668   -0.2807386172   -0.9506653142
45   

C       -2.7033819049   -1.0285847301   -0.3954022203
C       -1.6189880174   -0.0396297737   -0.3159925531
C       -0.4350769102   -0.6195355440    0.1036924409
C       -4.0891849210   -0.8088751773   -0.7992458156
C       -2.3016452379   -2.2794318604   -0.0400024245
C       -4.5155390791   -3.1244290205   -0.4396173040
C       -7.2667905037   -1.3441393991   -0.1030883946
C       -8.4009235497   -0.5940718594   -0.1939306861
C       -1.8027802523    1.4173235447   -0.6697640175
C       -9.7661127209   -1.1833961121   -0.4744361635
C       -8.2240145128    0.8724057154   -0.5066876412
C       -1.0054434007   -5.6638223143   -2.8638737637
C        0.8979871837    0.0391720107    0.3307523769
C       -6.3512485593   -1.6852881003   -1.2584106772
C       -2.7559540623   -4.7101647582    0.2938007779
C       -2.4286500704   -5.5446597620   -0.9458520330
N       -4.9789183460   -1.8671440473   -0.7942324749
N       -3.1950588968   -3.3570537523   -0.0587515092
O       -4.4640877258    0.2991510444   -1.1589620681
O       -5.2956227250   -4.0698988959   -0.4562270970
O        1.8062162455   -0.4331635332   -0.6624286747
O       -1.3319799816   -4.9634624497   -1.6604581146
S       -0.6019495543   -2.3476084285    0.4100551200
H       -7.3531356542   -2.1943077056    0.5647623446
H       -2.4878733411    1.8869108444    0.0425450491
H       -0.8608759063    1.9681141802   -0.6625505035
H       -2.2296255726    1.5062886653   -1.6731623969
H      -10.5082387769   -0.3991806462   -0.6525023807
H       -9.7204827992   -1.8299715530   -1.3558952396
H      -10.0953135339   -1.7805605536    0.3810244950
H       -8.8928968099    1.1793395028   -1.3168582517
H       -8.4469521657    1.4716342658    0.3805638848
H       -7.1970353195    1.0887013983   -0.8192382322
H       -0.1193093438   -5.2139048823   -3.3217743359
H       -1.8341509438   -5.6046505442   -3.5765107173
H       -0.7898410153   -6.7157849655   -2.6508513452
H        0.8218034938    1.1272321663    0.2731913939
H        1.2724297376   -0.2161973652    1.3270711232
H       -6.4065806694   -0.9026143945   -2.0233422936
H       -6.7132473039   -2.5969625770   -1.7466491266
H       -3.5435095081   -5.2140737576    0.8638449949
H       -1.8811510526   -4.6789582715    0.9487444720
H       -3.3112122404   -5.6069029572   -1.5914130565
H       -2.1637786152   -6.5593303200   -0.6318039771
H        1.3776658508   -0.4402023748   -1.5369677505
45   

C       -2.7104569639   -1.0484566650   -0.4347691747
C       -1.6316846603   -0.0549117829   -0.3372388457
C       -0.4514885085   -0.6305987430    0.0984807154
C       -4.0903569044   -0.8341953521   -0.8610890664
C       -2.3088270269   -2.2981390001   -0.0755784960
C       -4.5139068137   -3.1507792907   -0.5069203307
C       -7.2821257198   -1.4247477250   -0.2036384064
C       -8.3521866338   -0.5912627550   -0.2664945321
C       -1.8180531527    1.4024200005   -0.6882168476
C       -9.7753604488   -1.0971456640   -0.3293707029
C       -8.1215163342    0.8359856367   -0.7029140940
C       -0.9683631653   -5.6645355857   -2.8986288980
C        0.8753527340    0.0331157561    0.3467667296
C       -6.3444621395   -1.7197311094   -1.3495399044
C       -2.7572454218   -4.7317757246    0.2437253170
C       -2.4118219787   -5.5604445127   -0.9949490552
N       -4.9775131712   -1.8947487909   -0.8661766681
N       -3.1975398416   -3.3792040034   -0.1094014433
O       -4.4605385703    0.2707525558   -1.2344521094
O       -5.2895931325   -4.0996475148   -0.5363592385
O        1.8007743480   -0.4348054069   -0.6325268790
O       -1.3091848513   -4.9722277881   -1.6944989702
S       -0.6155366137   -2.3600214389    0.3989386203
H       -7.4298566927   -2.3045666406    0.4132684834
H       -2.5268253373    1.8621432554    0.0071731498
H       -0.8818999171    1.9616635712   -0.6510554288
H       -2.2177727300    1.4930604610   -1.7025909504
H      -10.4826447377   -0.2688521409   -0.4355265760
H       -9.8948830312   -1.7722759588   -1.1820306363
H      -10.0182096006   -1.6426790530    0.5873163424
H       -8.7824348317    1.0923819464   -1.5368373193
H       -8.3268302545    1.5150063226    0.1295888417
H       -7.0883570005    0.9970023114   -1.0250640232
H       -0.0786539294   -5.2097099534   -3.3445924832
H       -1.7897478385   -5.6031319004   -3.6195122969
H       -0.7523558142   -6.7172306437   -2.6896705584
H        0.7961289528    1.1209055118    0.2888133029
H        1.2352456730   -0.2216555323    1.3485842865
H       -6.3988480558   -0.9263275423   -2.1029500831
H       -6.6822988923   -2.6273935204   -1.8619966333
H       -3.5495299512   -5.2408034272    0.8025481671
H       -1.8904035005   -4.6994713235    0.9091083592
H       -3.2864465574   -5.6240242930   -1.6510998264
H       -2.1464406133   -6.5751434104   -0.6814389716
H        1.3862893370   -0.4415406153   -1.5138261622
45   

C       -2.7442718121   -1.0450153189   -0.4306134607
C       -1.6735323505   -0.0445507068   -0.3154755994
C       -0.5006771306   -0.6103263795    0.1519094361
C       -4.1136256830   -0.8421586300   -0.8943598319
C       -2.3450127244   -2.2893764915   -0.0516392582
C       -4.5359158246   -3.1562529888   -0.5261919195
C       -7.3268703128   -1.5100313932   -0.2841902109
C       -8.3277996070   -0.6008733767   -0.2881335321
C       -1.8613981378    1.4096692806   -0.6787181754
C       -9.7770317908   -0.9995108564   -0.1330395164
C       -8.0563006728    0.7997752107   -0.7809534691
C       -0.9333306163   -5.6570701480   -2.8309637602
C        0.8167149815    0.0622731055    0.4257245156
C       -6.3571727435   -1.7427652317   -1.4155981647
C       -2.7876776430   -4.7230836528    0.2725056828
C       -2.4114274167   -5.5564915452   -0.9539121497
N       -4.9981057731   -1.9052220424   -0.9045801515
N       -3.2274439790   -3.3750719531   -0.0979774171
O       -4.4743081942    0.2548201931   -1.2985323664
O       -5.3052964768   -4.1098767069   -0.5678790371
O        1.7673131257   -0.4094235999   -0.5272733290
O       -1.2977521817   -4.9654927874   -1.6333669710
S       -0.6628478281   -2.3382154201    0.4625037175
H       -7.5214332703   -2.4140159708    0.2829124977
H       -2.6038100506    1.8632086531   -0.0150670963
H       -0.9345788670    1.9803906212   -0.6032933586
H       -2.2197123514    1.4925615521   -1.7091186360
H      -10.4254039329   -0.1179480733   -0.1254409451
H      -10.0768256707   -1.6476900843   -0.9619252232
H       -9.9187929552   -1.5413895328    0.8067977244
H       -8.5969214668    0.9810427146   -1.7151228015
H       -8.3910894413    1.5267689186   -0.0351819518
H       -6.9900700538    0.9669271805   -0.9564101910
H       -0.0391565735   -5.1975152413   -3.2629262505
H       -1.7431683584   -5.6013283765   -3.5652565480
H       -0.7146456980   -6.7082182123   -2.6171038155
H        0.7340208051    1.1490876145    0.3561808167
H        1.1540076360   -0.1819479952    1.4379746396
H       -6.4133474278   -0.9295939716   -2.1472986447
H       -6.6593570317   -2.6425453408   -1.9630752744
H       -3.5890131695   -5.2332154373    0.8172242558
H       -1.9353568193   -4.6822105742    0.9559334388
H       -3.2717360838   -5.6289118326   -1.6278377175
H       -2.1466495724   -6.5678195500   -0.6292489060
H        1.3742899006   -0.4244012287   -1.4182600271
45   

C       -2.7081053752   -1.1038399583   -0.5708652494
C       -1.6417109793   -0.1034491708   -0.4203794728
C       -0.4801142081   -0.6723211194    0.0706508763
C       -4.0663946969   -0.8978096257   -1.0647014213
C       -2.3167740027   -2.3512630956   -0.1935405612
C       -4.4951247204   -3.2154862928   -0.7271566209
C       -7.2849762164   -1.6028919288   -0.5073886239
C       -8.2142093244   -0.6281207268   -0.4328694689
C       -1.8215100257    1.3538435600   -0.7752925658
C       -9.6361699694   -0.9280679397   -0.0197569185
C       -7.9076606826    0.7461438253   -0.9755117499
C       -0.8510907011   -5.6920545291   -2.9762446021
C        0.8289412295   -0.0005347358    0.3833618379
C       -6.3013169311   -1.7928653341   -1.6318915110
C       -2.7651157433   -4.7880181486    0.0991130354
C       -2.3628201643   -5.6118014831   -1.1254362811
N       -4.9497223625   -1.9611649304   -1.1035394961
N       -3.1968051666   -3.4372033245   -0.2705317961
O       -4.4185238479    0.2025274315   -1.4674930629
O       -5.2623673435   -4.1692887840   -0.7959771166
O        1.8009362841   -0.4540933901   -0.5567351290
O       -1.2353036118   -5.0151379359   -1.7764870453
S       -0.6475766940   -2.4031915130    0.3610222694
H       -7.5035226235   -2.5165042179    0.0350752820
H       -2.5759221908    1.8027567414   -0.1221146724
H       -0.8955634440    1.9227429996   -0.6780802507
H       -2.1600391977    1.4456018055   -1.8116036615
H      -10.1883851363   -0.0060295330    0.1851204548
H      -10.1487225138   -1.4722211408   -0.8186570502
H       -9.6452823762   -1.5420269064    0.8859510980
H       -8.1182330125    0.7815753287   -2.0486301614
H       -8.5179416642    1.5037974521   -0.4752407556
H       -6.8568529941    1.0012592991   -0.8112850284
H        0.0501638919   -5.2274902536   -3.3876246723
H       -1.6485928670   -5.6271490590   -3.7231884254
H       -0.6361404113   -6.7457859416   -2.7715329867
H        0.7439587419    1.0870359398    0.3296209957
H        1.1454474657   -0.2599896150    1.3985332788
H       -6.3515866811   -0.9571114936   -2.3379694919
H       -6.5879396713   -2.6778987432   -2.2108747430
H       -3.5780042843   -5.3020965169    0.6225966529
H       -1.9275481084   -4.7526541782    0.8008309954
H       -3.2087682408   -5.6792248308   -1.8178164808
H       -2.1044477764   -6.6255421829   -0.8031798793
H        1.4262712563   -0.4577199316   -1.4557108437
45   

C       -2.7143946485   -1.1471645643   -0.6605441123
C       -1.6589900336   -0.1404839783   -0.4776799890
C       -0.5063718787   -0.7043234241    0.0394765780
C       -4.0616627354   -0.9471481640   -1.1859039386
C       -2.3241189787   -2.3940941224   -0.2805952751
C       -4.4820643101   -3.2700189402   -0.8750353490
C       -7.2827707336   -1.7144298619   -0.6877526828
C       -8.1476402178   -0.6959022256   -0.5233769872
C       -1.8384460117    1.3175097824   -0.8299950575
C       -9.4861390029   -0.9135484976    0.1424298470
C       -7.9008530046    0.6381737851   -1.1836156927
C       -0.7784093332   -5.7055183224   -3.0506935905
C        0.7894940492   -0.0251124804    0.3887160246
C       -6.2804994148   -1.8518735650   -1.8024154655
C       -2.7636607388   -4.8351508298   -0.0117851899
C       -2.3271405699   -5.6506356490   -1.2300252197
N       -4.9364274160   -2.0162466276   -1.2534093103
N       -3.1945154729   -3.4854068616   -0.3860382512
O       -4.4115449082    0.1538747836   -1.5886125446
O       -5.2401098188   -4.2288906754   -0.9703522414
O        1.7851423540   -0.4577346596   -0.5363505203
O       -1.1885220897   -5.0434328508   -1.8512850414
S       -0.6691179362   -2.4379187243    0.3157728965
H       -7.4835180932   -2.6303947957   -0.1424276518
H       -2.6066096872    1.7606617126   -0.1890270032
H       -0.9165909393    1.8895675225   -0.7138799345
H       -2.1580294572    1.4123039872   -1.8720226247
H       -9.4776382722   -0.4780479719    1.1460071362
H      -10.2813532227   -0.4389149651   -0.4404935434
H       -9.7140895718   -1.9806881488    0.2255661039
H       -8.1135731173    0.5771379226   -2.2549467174
H       -8.5461891227    1.4056847703   -0.7457554417
H       -6.8631838648    0.9523281392   -1.0403692809
H        0.1277917285   -5.2318846975   -3.4402667605
H       -1.5622099756   -5.6369000710   -3.8116867935
H       -0.5616664284   -6.7601994320   -2.8529258823
H        0.6953623002    1.0622828043    0.3471686955
H        1.0868452514   -0.2947897551    1.4070087478
H       -6.3285452632   -0.9986368083   -2.4866710482
H       -6.5426270115   -2.7240630259   -2.4116964769
H       -3.5858235674   -5.3563638204    0.4897050226
H       -1.9433709312   -4.7979589942    0.7099594835
H       -3.1560900309   -5.7203852331   -1.9424548893
H       -2.0696354994   -6.6641231708   -0.9063379469
H        1.4288820656   -0.4550622390   -1.4427777879
45   

C       -2.7636110858   -1.1332150769   -0.6899372006
C       -1.7149828873   -0.1237415933   -0.4845715302
C       -0.5802495912   -0.6805444646    0.0777983402
C       -4.0913269883   -0.9407543103   -1.2651646469
C       -2.3869816334   -2.3747658737   -0.2803362263
C       -4.5258832904   -3.2573943860   -0.9316241937
C       -7.3275325407   -1.7459217937   -0.8162425047
C       -8.1083718024   -0.6834408693   -0.5526333103
C       -1.8847136357    1.3302106410   -0.8580081892
C       -9.3150390816   -0.8215869331    0.3455696523
C       -7.8784868288    0.6453545167   -1.2301246224
C       -0.7604530673   -5.7107444832   -2.9649031462
C        0.7035551382    0.0031471304    0.4613277497
C       -6.3021051296   -1.8484510757   -1.9141510673
C       -2.8360435523   -4.8120945520    0.0038659810
C       -2.3611343141   -5.6414450048   -1.1902799448
N       -4.9681082843   -2.0080509770   -1.3382618481
N       -3.2541870657   -3.4670706225   -0.4003199704
O       -4.4202641823    0.1514728051   -1.7070793689
O       -5.2806261180   -4.2175629805   -1.0396717350
O        1.7293523526   -0.4421957963   -0.4238693745
O       -1.2032961915   -5.0408028519   -1.7816636902
S       -0.7526986498   -2.4104450950    0.3712168559
H       -7.5411567991   -2.6719532555   -0.2932022709
H       -2.6866088099    1.7739802680   -0.2602067167
H       -0.9737163980    1.9094479226   -0.6998249562
H       -2.1524652339    1.4140650458   -1.9154781548
H       -9.0884066897   -0.4186805388    1.3371960576
H      -10.1642811158   -0.2720936204   -0.0719829689
H       -9.6074246905   -1.8708426693    0.4517925981
H       -8.1732110422    0.5910072602   -2.2821292693
H       -8.4687022511    1.4290848389   -0.7457732959
H       -6.8267221700    0.9354844560   -1.1649608958
H        0.1561539464   -5.2395871375   -3.3325041341
H       -1.5229944497   -5.6472588867   -3.7476359948
H       -0.5493833715   -6.7640370099   -2.7540911771
H        0.6119475442    1.0898848878    0.4017899631
H        0.9663459764   -0.2527760301    1.4925913135
H       -6.3482594954   -0.9826235182   -2.5824505644
H       -6.5396198716   -2.7122419582   -2.5451124862
H       -3.6739337416   -5.3274135252    0.4850048339
H       -2.0391402447   -4.7661964109    0.7508718858
H       -3.1671052681   -5.7196184569   -1.9277724206
H       -2.1139421106   -6.6510152810   -0.8469635610
H        1.4038812680   -0.4509064583   -1.3417787994
45   

C       -2.7799922756   -1.1833829929   -0.7853643867
C       -1.7499496020   -0.1633666140   -0.5418418781
C       -0.6257535733   -0.7112988754    0.0495954716
C       -4.0907719840   -1.0021986657   -1.4011549642
C       -2.4022047492   -2.4231316460   -0.3719441876
C       -4.5149150314   -3.3224956571   -1.0836995812
C       -7.3203996105   -1.8454659142   -0.9846058824
C       -8.0217109775   -0.7610218053   -0.6115480515
C       -1.9285062390    1.2920500137   -0.9054735404
C       -9.0249901880   -0.8520178598    0.5144042567
C       -7.8546992145    0.5666476677   -1.3098964129
C       -0.6659244129   -5.7201042963   -3.0297948760
C        0.6382601572   -0.0159876912    0.4755884380
C       -6.2898281333   -1.9207724633   -2.0803237316
C       -2.8337823981   -4.8663545988   -0.1147661190
C       -2.3162869200   -5.6823479288   -1.3002054098
N       -4.9589148440   -2.0750766580   -1.4944706159
N       -3.2544704654   -3.5233348221   -0.5227486259
O       -4.4103302823    0.0849461722   -1.8615881360
O       -5.2582130640   -4.2888014226   -1.2139128615
O        1.6928698176   -0.4381788058   -0.3867390250
O       -1.1483057385   -5.0653648307   -1.8535812389
S       -0.7871259364   -2.4450415570    0.3265222940
H       -7.5205199773   -2.7793424240   -0.4702034861
H       -2.7666263949    1.7133611505   -0.3420517944
H       -1.0379551678    1.8861646962   -0.6949284558
H       -2.1466366986    1.3845071665   -1.9735764070
H       -8.5723151084   -0.4967602643    1.4449845685
H       -9.9029833633   -0.2375425614    0.2928753309
H       -9.3598606978   -1.8839368923    0.6583758408
H       -8.2894788230    0.5232496462   -2.3126070965
H       -8.3568514170    1.3606743265   -0.7491444383
H       -6.7993991169    0.8376132333   -1.3868112598
H        0.2550339321   -5.2357233286   -3.3681727750
H       -1.4074841757   -5.6581797614   -3.8325523960
H       -0.4489226920   -6.7727808598   -2.8219961684
H        0.5345091309    1.0701222567    0.4256269053
H        0.8765720174   -0.2804761252    1.5106322041
H       -6.3420503396   -1.0433219185   -2.7329232999
H       -6.5142600670   -2.7766179464   -2.7267110707
H       -3.6793003402   -5.3937442057    0.3391757251
H       -2.0589163559   -4.8168178294    0.6548605224
H       -3.0999868254   -5.7634543676   -2.0610241970
H       -2.0683407080   -6.6916808996   -0.9567659158
H        1.3920404783   -0.4402577406   -1.3130702128
