30   

C        7.4088334641   -5.7624291309    4.4739046734
C        8.5145217238   -9.1007222526    2.0651757110
C        8.9081622971   -8.8627161755    0.7504779549
C        7.5536092947   -8.2822166306    2.6631891153
C        5.8695127966   -6.0707466249    7.1918308160
C        8.3413580371   -7.8025202540    0.0416790306
C        6.7047464937   -6.2893315470    8.2914086903
C        7.2585755138   -3.9496332611    8.3279221333
C        6.9673924494   -7.2076067383    1.9631319328
C        5.7284026034   -4.7859586118    6.6416374259
C        7.4090010024   -5.2300383466    8.8676807659
C        7.3780502462   -6.9689863250    0.6265697040
C        6.4240070837   -3.7110016008    7.2290075797
C        6.1084805353   -5.8316144251    3.8837436596
C        5.9329487567   -6.3757122745    2.6157510687
N        8.4762619767   -5.7349946176    4.9414829747
N        4.8853712914   -4.5612544439    5.5605342526
N        4.9847089085   -5.1600473805    4.4187072160
O        4.7966623889   -6.1701124576    1.9578735073
Cl       8.4552983563   -5.4980074331   10.2392498546
Cl       6.7588736430   -5.6272998436   -0.3189777157
Cl       6.2804355615   -2.0832585264    6.5947387265
H        8.9520359907   -9.9207400355    2.6238321813
H        9.6540001504   -9.4947431090    0.2808134753
H        7.2530226524   -8.4925139875    3.6836063361
H        5.3251120718   -6.9002661836    6.7557479592
H        8.6536353772   -7.6104586625   -0.9783333965
H        6.8114893201   -7.2862307649    8.7027527311
H        7.8023136950   -3.1219144095    8.7665507629
H        4.2294435411   -5.5732349804    2.4799134590
30   

C        7.4340434616   -5.6053752183    4.3806631357
C        8.4829179127   -9.1135722059    2.1357352092
C        8.8624858877   -8.9512362491    0.8061135673
C        7.5375927915   -8.2541166718    2.6997134064
C        6.0126851181   -6.1751272871    7.1508079914
C        8.2981927069   -7.9246195722    0.0485717818
C        6.8782176365   -6.3748145170    8.2299414208
C        7.2432193958   -4.0021024081    8.3683187011
C        6.9500326788   -7.2129134352    1.9508942795
C        5.7580971675   -4.8824729326    6.6641767535
C        7.5027624113   -5.2891619875    8.8474194258
C        7.3504312661   -7.0494068223    0.5971569425
C        6.3754215011   -3.7823653375    7.2914007719
C        6.1170346657   -5.8311998838    3.8741944966
C        5.9375271114   -6.3380708243    2.5859440417
N        8.5161711955   -5.4474825826    4.7837733610
N        4.8751293318   -4.6775534714    5.6113629091
N        4.9653053882   -5.2617682708    4.4623231474
O        4.8528744645   -6.0141993870    1.8923555684
Cl       8.5836722095   -5.5333991428   10.1962718772
Cl       6.7506297708   -5.7515643318   -0.4206192616
Cl       6.0924583718   -2.1444397321    6.7347182835
H        8.9200694819   -9.9063239549    2.7326988498
H        9.5967546001   -9.6148107625    0.3624379847
H        7.2505939663   -8.4067320282    3.7341428325
H        5.5280154143   -7.0250925617    6.6847084087
H        8.6021851067   -7.7900717699   -0.9831227771
H        7.0686056417   -7.3773097225    8.5946943312
H        7.7252945120   -3.1537675300    8.8386192612
H        4.3016909823   -5.4105910432    2.4236081165
30   

C        7.4455351276   -5.4645795599    4.3275162015
C        8.4685523129   -9.1358593396    2.2169409599
C        8.8368016861   -9.0423176681    0.8782621200
C        7.5379271018   -8.2399969125    2.7471888455
C        6.1499910385   -6.2621527437    7.1425744818
C        8.2761033881   -8.0475737350    0.0777767587
C        7.0435264102   -6.4219015769    8.2050278186
C        7.2281095034   -4.0323891883    8.4010893415
C        6.9509823083   -7.2293567950    1.9559188932
C        5.7872021994   -4.9814241509    6.6958570612
C        7.5913814811   -5.3074576976    8.8435519121
C        7.3426597998   -7.1355406614    0.5901293358
C        6.3294403175   -3.8529606791    7.3420897898
C        6.1432556347   -5.8478668214    3.8836756551
C        5.9606342602   -6.3144753670    2.5735965907
N        8.5174162436   -5.1748058370    4.6813963709
N        4.8673653045   -4.8204920982    5.6674547966
N        4.9647899070   -5.3932909953    4.5139915845
O        4.9437916399   -5.8721950354    1.8471299589
Cl       8.7043387246   -5.5023052730   10.1741574991
Cl       6.7596444724   -5.8843775945   -0.4947788259
Cl       5.9140224014   -2.2281239838    6.8320286815
H        8.9037885987   -9.9032674629    2.8474700476
H        9.5602729670   -9.7339169848    0.4603792349
H        7.2628920724   -8.3411986045    3.7910662805
H        5.7231577035   -7.1345840428    6.6617308014
H        8.5730808750   -7.9660718386   -0.9615269698
H        7.3137067323   -7.4158100714    8.5416789284
H        7.6510887604   -3.1616930496    8.8871953205
H        4.4070112770   -5.2607833771    2.3838942079
30   

C        7.4350055742   -5.3207886432    4.2675276226
C        8.4455527820   -9.1527198320    2.2625206949
C        8.8013623862   -9.1243011732    0.9183307495
C        7.5336788303   -8.2205763417    2.7612812463
C        6.2674659761   -6.3302111124    7.1153807553
C        8.2459194230   -8.1588876462    0.0802438719
C        7.1814061375   -6.4426517961    8.1661407262
C        7.1890256619   -4.0501073735    8.4074646334
C        6.9512845497   -7.2353260395    1.9336509231
C        5.8025731948   -5.0726940486    6.6997706609
C        7.6505266911   -5.3026597764    8.8219663536
C        7.3307176183   -7.2102945007    0.5584712443
C        6.2672781032   -3.9187036936    7.3612721940
C        6.1716082716   -5.8533577842    3.8700775049
C        5.9902594090   -6.2756751409    2.5350625248
N        8.4761008515   -4.9044742994    4.5848475122
N        4.8545758891   -4.9648741344    5.6905907072
N        4.9717670101   -5.5218441839    4.5319456545
O        5.0591349430   -5.7133615482    1.7798840878
Cl       8.7864466316   -5.4392875440   10.1402638832
Cl       6.7608084149   -6.0089700381   -0.5889421269
Cl       5.7258638659   -2.3203564250    6.8869806069
H        8.8767660562   -9.8974403448    2.9223382756
H        9.5111891058   -9.8436973379    0.5246539069
H        7.2723315370   -8.2745709252    3.8120584091
H        5.9002123764   -7.2227944617    6.6225269565
H        8.5335590409   -8.1289723798   -0.9644750255
H        7.5272858975   -7.4199401022    8.4813792583
H        7.5512042023   -3.1595148612    8.9065053470
H        4.5397223916   -5.0886245977    2.3179988983
30   

C        7.4209746260   -5.1898542775    4.2369442718
C        8.3841335520   -9.1815333027    2.2851311837
C        8.7179265530   -9.2091683512    0.9361188192
C        7.5077113154   -8.2072854833    2.7659818278
C        6.3931948154   -6.3945448030    7.1132711607
C        8.1732630540   -8.2594810421    0.0743556601
C        7.3279356457   -6.4598647098    8.1492688206
C        7.1801607504   -4.0754462210    8.4246043857
C        6.9386760939   -7.2310287119    1.9165290569
C        5.8373894514   -5.1662372923    6.7245723629
C        7.7294551496   -5.3000647689    8.8151187923
C        7.2926329707   -7.2687641947    0.5321755606
C        6.2352655209   -3.9921133932    7.3941805408
C        6.2083674831   -5.8515453847    3.8791496148
C        6.0295282900   -6.2153145929    2.5129355336
N        8.4198220648   -4.6622302689    4.5226235970
N        4.8629058772   -5.1130052233    5.7371962084
N        4.9993788892   -5.6461662891    4.5702816169
O        5.2064935763   -5.5226940108    1.7432073273
Cl       8.8894889659   -5.3789070824   10.1169321652
Cl       6.7338393054   -6.1068722728   -0.6612161383
Cl       5.5813396975   -2.4275491576    6.9501226631
H        8.8061896625   -9.9148596795    2.9633830156
H        9.4017070548   -9.9605658527    0.5563567546
H        7.2682079014   -8.2221962530    3.8230794084
H        6.0771432668   -7.3028312991    6.6136781047
H        8.4425184317   -8.2755803014   -0.9755813688
H        7.7414685459   -7.4163579199    8.4461547710
H        7.4900982823   -3.1694062712    8.9309891097
H        4.7187000704   -4.8767225366    2.2853837505
30   

C        7.4067228046   -5.0467413213    4.2213712224
C        8.3133439455   -9.2251845659    2.2964008804
C        8.6111176491   -9.3139175641    0.9423360599
C        7.4880961080   -8.2007748261    2.7627820099
C        6.5292121031   -6.4388365240    7.1157959161
C        8.0776654800   -8.3776434351    0.0600374165
C        7.4753640538   -6.4352023520    8.1431315482
C        7.1456525716   -4.0702658935    8.4297603982
C        6.9356485145   -7.2299185500    1.8942652059
C        5.8745552652   -5.2569839878    6.7393645290
C        7.7913650770   -5.2501826953    8.8106376473
C        7.2466798527   -7.3374720876    0.5010752991
C        6.1868982519   -4.0571934189    7.4088070350
C        6.2692662889   -5.8362606944    3.8795692098
C        6.0992000884   -6.1464907901    2.4838271896
N        8.3423440310   -4.4075633116    4.4926917562
N        4.8851547443   -5.2817580877    5.7667220064
N        5.0582180228   -5.7841401040    4.5916622442
O        5.4018599143   -5.3397827690    1.7026473708
Cl       8.9643515555   -5.2440819432   10.1030938841
Cl       6.6894671010   -6.2170573638   -0.7327413214
Cl       5.4091957468   -2.5469604671    6.9765908748
H        8.7252148817   -9.9493280836    2.9906019062
H        9.2570175265  -10.1035017806    0.5739040470
H        7.2816121938   -8.1731695254    3.8263750539
H        6.2785891350   -7.3669312855    6.6155153124
H        8.3162036406   -8.4444898802   -0.9953293918
H        7.9635238917   -7.3581472832    8.4326969392
H        7.3894328187   -3.1446607087    8.9369326113
H        4.9589341300   -4.6604632475    2.2421162905
30   

C        5.9372704288   -7.1171198855    5.0130479338
C        9.3865525851   -7.0695399076    1.5281366212
C        9.2344929905   -7.7486936957    0.3265650931
C        8.2613947320   -6.6630329606    2.2458735688
C        5.6980575141   -4.9871607781    7.6565320258
C        7.9544064226   -8.0105148567   -0.1548418045
C        6.2765912799   -5.4600373252    8.8369665083
C        8.4547650010   -5.2478169325    7.8416928195
C        6.9459649095   -6.9220810159    1.7925069435
C        6.4913957472   -4.6511054705    6.5505656141
C        7.6621317557   -5.5923522969    8.9402961816
C        6.8055945882   -7.6121989954    0.5447946984
C        7.8934329199   -4.7767530589    6.6485004139
C        6.0752307887   -6.0981059409    4.0302329080
C        5.8021410072   -6.4972657289    2.6513144460
N        5.8079030463   -7.9588820362    5.8082227052
N        5.8809773830   -4.1325540807    5.4186832633
N        5.8594852010   -4.7322110561    4.2763306856
O        4.5589541808   -6.6823349599    2.2491925103
Cl       8.3938814355   -6.1627729780   10.4186481166
Cl       5.2690587753   -8.0359157083   -0.1959077310
Cl       8.9545563964   -4.3107052531    5.3332158094
H       10.3787038202   -6.8584759016    1.9117543498
H       10.1050531271   -8.0740298139   -0.2324747554
H        8.4364109444   -6.1386594891    3.1768287401
H        4.6206503344   -4.8831666571    7.5904830936
H        7.8376495897   -8.5422440054   -1.0921991804
H        5.6491017511   -5.7235517950    9.6807793469
H        9.5311614219   -5.3354488269    7.9185890609
H        3.9385832973   -6.3932401177    2.9411671579
30   

C        6.0588896918   -7.0799740361    4.8954892470
C        9.4150985604   -7.1515783963    1.5884846536
C        9.2474663216   -7.9378700509    0.4555120883
C        8.2998437666   -6.6327992126    2.2473410463
C        5.6777562980   -5.1215583238    7.6944583421
C        7.9623070238   -8.1990818420   -0.0139098950
C        6.3592738380   -5.5823824244    8.8233338189
C        8.4521542390   -5.1179040237    7.7355753576
C        6.9816464041   -6.8822558924    1.7995891954
C        6.3756159134   -4.6651697108    6.5675124824
C        7.7543877394   -5.5826058476    8.8541570265
C        6.8241023927   -7.6912469736    0.6296051080
C        7.7873764671   -4.6563169667    6.5924907924
C        6.0720869798   -5.9986020590    3.9689482899
C        5.8487993106   -6.3170070767    2.5849664348
N        6.0423079531   -7.9709166653    5.6463248239
N        5.6533622030   -4.1711947039    5.4906900550
N        5.6734131962   -4.6947338454    4.3111336561
O        4.6222717858   -6.3242527587    2.0889644088
Cl       8.6129164692   -6.1390621552   10.2683149348
Cl       5.2744930433   -8.1481791315   -0.0615443739
Cl       8.7317588224   -4.0375081541    5.2508585661
H       10.4112206565   -6.9428083013    1.9628638979
H       10.1097419594   -8.3488296608   -0.0581609648
H        8.4790820196   -6.0222762651    3.1241245396
H        4.5933344736   -5.1228096376    7.6845280996
H        7.8329136071   -8.8187595945   -0.8938387870
H        5.8043026949   -5.9403488101    9.6830566880
H        9.5345249744   -5.1034116500    7.7573984615
H        4.0032327604   -5.9446759871    2.7374021652
30   

C        6.2060101107   -7.0313569893    4.8434914631
C        9.4033020284   -7.2235859764    1.6025592397
C        9.2038599096   -8.0570635664    0.5082742197
C        8.3085489785   -6.6402028658    2.2418821581
C        5.6416044968   -5.1690237479    7.7211357724
C        7.9076592688   -8.3037313354    0.0601129440
C        6.3840902925   -5.5992540460    8.8231434383
C        8.4100663174   -4.9922924433    7.6806366881
C        6.9823775514   -6.8704771462    1.8103472282
C        6.2743384843   -4.6571658830    6.5797487840
C        7.7766730666   -5.5133557968    8.8126725540
C        6.7906116120   -7.7318797718    0.6865097349
C        7.6838563615   -4.5591699272    6.5636349489
C        6.0559800861   -5.9385720667    3.9407602165
C        5.8717650633   -6.2238300139    2.5594249026
N        6.3311173188   -7.9311894614    5.5732869093
N        5.4846825534   -4.2079272924    5.5298504829
N        5.5244220566   -4.6964593537    4.3351351693
O        4.6772973089   -6.0935130708    2.0034830718
Cl       8.7102212309   -6.0346581885   10.1923827165
Cl       5.2174813214   -8.1804865410    0.0462802557
Cl       8.5493769894   -3.8709822058    5.2022377618
H       10.4078924673   -7.0274165992    1.9607456560
H       10.0499707043   -8.5167536351    0.0092194161
H        8.5060680505   -5.9915403449    3.0874725178
H        4.5596395508   -5.2394757252    7.7428272760
H        7.7528751764   -8.9620597511   -0.7870090410
H        5.8785678766   -6.0017952576    9.6935914495
H        9.4897670434   -4.9123905508    7.6708016341
H        4.0721813040   -5.6590927863    2.6307460843
30   

C        6.3706007104   -6.9658032570    4.8205047074
C        9.4011443468   -7.2666611765    1.5890470635
C        9.1658044098   -8.1515754386    0.5421929738
C        8.3284064189   -6.6378712042    2.2232908195
C        5.5746828455   -5.1985560485    7.7466304188
C        7.8560570324   -8.4063176295    0.1381323149
C        6.3479032123   -5.5930162121    8.8407366733
C        8.3288027363   -4.8706301113    7.6866320648
C        6.9921962781   -6.8738935645    1.8312951379
C        6.1688665582   -4.6477253462    6.6027778329
C        7.7335930095   -5.4322787116    8.8200555734
C        6.7621984608   -7.7893103010    0.7620840062
C        7.5714082769   -4.4707675216    6.5775207613
C        6.0492721750   -5.8971223467    3.9316857094
C        5.9034578389   -6.1698924152    2.5549107317
N        6.6412368145   -7.8452343564    5.5356922427
N        5.3436943907   -4.2469140654    5.5597179474
N        5.4083315825   -4.7165262677    4.3577146450
O        4.7534202035   -5.9223863732    1.9451245803
Cl       8.7047942659   -5.9129616274   10.1886019354
Cl       5.1629610696   -8.2489378304    0.2007744809
Cl       8.3892868812   -3.7332432434    5.2121264172
H       10.4162110481   -7.0651075309    1.9130163564
H        9.9946395348   -8.6453014771    0.0466746094
H        8.5466055555   -5.9473032737    3.0303381199
H        4.4984734436   -5.3288371945    7.7758707731
H        7.6727148875   -9.1054593578   -0.6696509132
H        5.8717882973   -6.0272456934    9.7125307013
H        9.4027629522   -4.7343768468    7.6688304138
H        4.1592689106   -5.4506005287    2.5561250823
30   

C        6.5039044237   -6.9209392499    4.8000522386
C        9.4045434712   -7.3301628004    1.5727033299
C        9.1339249268   -8.2390068603    0.5542096661
C        8.3549299663   -6.6631103208    2.2071581736
C        5.5198321949   -5.2732572042    7.7646463486
C        7.8122906345   -8.4804219226    0.1796881758
C        6.3244368210   -5.6245829108    8.8506723069
C        8.2460309810   -4.7651145056    7.6903918331
C        7.0098255290   -6.8856385412    1.8419164078
C        6.0684260860   -4.6766296930    6.6211735273
C        7.6965865074   -5.3744384950    8.8223707115
C        6.7428399137   -7.8244461379    0.8057502324
C        7.4564021280   -4.4057075233    6.5895721044
C        6.0368460989   -5.8959649625    3.9230356869
C        5.9411662511   -6.1374189606    2.5459636769
N        6.8972499160   -7.7640633197    5.5020404481
N        5.2094826692   -4.3307814219    5.5851042753
N        5.2984986445   -4.7822622451    4.3770244542
O        4.8602673212   -5.7600487129    1.8765186714
Cl       8.7065754084   -5.8050403813   10.1795614877
Cl       5.1198703310   -8.2596868964    0.2974363650
Cl       8.2160323101   -3.6075997168    5.2243673402
H       10.4287582761   -7.1391245563    1.8733881303
H        9.9447141499   -8.7612578538    0.0580850977
H        8.5949864387   -5.9524799871    2.9905870985
H        4.4547542076   -5.4743584425    7.7992352063
H        7.6008670929   -9.1976620964   -0.6050003102
H        5.8834766069   -6.0959283414    9.7216593788
H        9.3090474619   -4.5607522815    7.6666636715
H        4.2699264879   -5.2656598930    2.4736283707
30   

C        6.6417824224   -6.8402206224    4.8031461460
C        9.4118732711   -7.3653754642    1.5639620420
C        9.1007764821   -8.2931501265    0.5735694677
C        8.3896649594   -6.6615846125    2.2039331221
C        5.4664917124   -5.3484035809    7.8052374371
C        7.7663790079   -8.5162838019    0.2323807933
C        6.2969026265   -5.6523756327    8.8859643392
C        8.1468879121   -4.6368373022    7.7355083590
C        7.0341584283   -6.8682910340    1.8720111777
C        5.9664895334   -4.6985801779    6.6687870998
C        7.6467326069   -5.3012931638    8.8593770816
C        6.7255958580   -7.8225474025    0.8656969019
C        7.3300590627   -4.3215732113    6.6406570300
C        6.0321899392   -5.8753067708    3.9442173457
C        5.9876343418   -6.0835288238    2.5655867613
N        7.1535375276   -7.6329090836    5.4875326996
N        5.0807272653   -4.4107260366    5.6372047556
N        5.1976806083   -4.8411080336    4.4233596628
O        4.9867036294   -5.5830024667    1.8513186224
Cl       8.6889561611   -5.6764857648   10.2086982539
Cl       5.0787732167   -8.2214014090    0.4091772762
Cl       8.0254305244   -3.4513939088    5.2851926467
H       10.4459580676   -7.1878395728    1.8379683248
H        9.8902642606   -8.8432329459    0.0731926090
H        8.6570619251   -5.9353754076    2.9640151438
H        4.4194265087   -5.6287114567    7.8379067956
H        7.5230271063   -9.2463930885   -0.5308466143
H        5.8936474130   -6.1662500881    9.7511161635
H        9.1921590225   -4.3551925622    7.7131264798
H        4.3971167042   -5.0769529839    2.4397393116
30   

C        6.7487598552   -6.7880782302    4.8092849220
C        9.3931770492   -7.4397135387    1.5344551023
C        9.0392401069   -8.3820735080    0.5717873707
C        8.4009042939   -6.7033903063    2.1853063628
C        5.4152529636   -5.4569063569    7.8330233865
C        7.6922556638   -8.5863663272    0.2684084758
C        6.2775825163   -5.6930558569    8.9055593562
C        8.0209677137   -4.5087048733    7.7501406864
C        7.0347387536   -6.8944878616    1.8923193642
C        5.8464283372   -4.7582934328    6.6976149074
C        7.5909771599   -5.2243164717    8.8717103095
C        6.6826726515   -7.8589807745    0.9140589247
C        7.1701325117   -4.2581971218    6.6641031785
C        6.0056774042   -5.9100666458    3.9611116813
C        6.0118548789   -6.0782403188    2.5810984261
N        7.3704854451   -7.5087985430    5.4822942001
N        4.9307392903   -4.5511077427    5.6723247079
N        5.0741260422   -4.9692939680    4.4564308836
O        5.1015829660   -5.4622295959    1.8342575484
Cl       8.6737769851   -5.5189124724   10.2091176709
Cl       5.0137672923   -8.2171548950    0.5094980236
Cl       7.7743005823   -3.3196617536    5.3105464965
H       10.4370925335   -7.2755611681    1.7778561177
H        9.8055180623   -8.9566046394    0.0628819118
H        8.6987996789   -5.9648638584    2.9218113338
H        4.3976223626   -5.8296351979    7.8705176465
H        7.4152663802   -9.3252139745   -0.4746336203
H        5.9280710557   -6.2467475779    9.7694835448
H        9.0375034770   -4.1366920081    7.7221688540
H        4.5071291452   -4.9520842188    2.4144662854
30   

C        6.8955024577   -6.6818074657    4.7914499320
C        9.3836006364   -7.5114966801    1.4525002078
C        8.9724709512   -8.4768891774    0.5357333039
C        8.4329529162   -6.7334274721    2.1171967332
C        5.3676715222   -5.5938574650    7.8166948764
C        7.6103312518   -8.6611740301    0.2908950184
C        6.2388699129   -5.7793970168    8.8919919457
C        7.8708007454   -4.3974659217    7.7943361905
C        7.0535253649   -6.9077910994    1.8845084186
C        5.7402153609   -4.8226118518    6.7082113489
C        7.5017912413   -5.1868698791    8.8879062210
C        6.6435415955   -7.8908471912    0.9518230746
C        7.0087949342   -4.1950286059    6.7067854064
C        6.0229157525   -5.9186130978    3.9547775861
C        6.0666587510   -6.0516126296    2.5735291312
N        7.6236345875   -7.3091383535    5.4513858150
N        4.8213374139   -4.6769596120    5.6753427728
N        5.0048882002   -5.0759864003    4.4577164905
O        5.2483088676   -5.3344237512    1.8103714617
Cl       8.5969226395   -5.4217295874   10.2271720259
Cl       4.9503036554   -8.2057271742    0.6223004250
Cl       7.5310110585   -3.1644009818    5.3867778576
H       10.4394614685   -7.3613327385    1.6489515557
H        9.7064285487   -9.0831515947    0.0161120661
H        8.7729808408   -5.9766876847    2.8159611157
H        4.3903746785   -6.0634240667    7.8299083092
H        7.2886830486   -9.4150025601   -0.4183007299
H        5.9363610755   -6.3909193120    9.7343267858
H        8.8480081495   -3.9309287826    7.7890228532
H        4.6524339830   -4.8172708540    2.3829956383
