33

C     -1.81511    0.96650    5.49634
C     -0.89965    0.84987    6.55551
C     -0.71565   -0.84322    4.35405
C     -1.73584    0.12782    4.38795
C      0.10855   -0.11181    6.52046
C      0.20057   -0.97310    5.39651
C     -5.69670   -1.97945    4.64668
C      0.99785    0.54973    8.63058
C      1.35705   -2.76226    4.32348
C     -2.74496    0.20776    3.26396
C     -3.81735   -0.89763    3.33241
C     -4.65519   -0.86101    4.60784
O     -5.28507    0.43495    4.65228
O      1.04872   -0.30463    7.49632
O      1.21967   -1.88491    5.43291
H     -2.60081    1.71543    5.54695
H     -0.98500    1.52002    7.40377
H     -0.64714   -1.49661    3.49005
H     -6.38277   -1.89546    3.79720
H     -5.21436   -2.96263    4.61106
H     -6.28834   -1.93498    5.56936
H      1.82177    0.23906    9.27489
H      0.05079    0.44072    9.17503
H      1.13438    1.60176    8.34849
H      2.21715   -3.39471    4.54855
H      1.54620   -2.20958    3.39423
H      0.46720   -3.39228    4.19566
H     -3.24422    1.17958    3.28655
H     -2.23142    0.13174    2.29777
H     -3.33951   -1.88241    3.26499
H     -4.48951   -0.80259    2.47023
H     -3.98274   -0.96241    5.47152
H     -5.78496    0.49443    5.48096
