54

C     -2.71738   -3.37284   -7.09900
C     -3.13905   -2.11249   -6.69390
C     -1.36974   -3.74661   -6.97550
C     -0.85290   -1.52609   -6.07017
C     -2.21176   -1.18676   -6.20678
C     -0.44602   -2.82281   -6.45829
C     -0.47853   -6.33791   -9.47851
C     -2.71677   -6.73633   -8.27391
C     -0.98302   -5.15099   -7.33830
C      0.00250   -7.73699   -9.13248
C     -2.36436   -8.20809   -8.34716
C     -0.87325   -8.48383   -8.11530
C      3.57772    2.58948   -5.43022
C      3.73066    1.45381   -4.37606
C      2.35961    2.19660   -6.30884
C      2.76749    0.33980   -4.82864
C     -1.60472   -5.72740   -8.63072
C      1.62208    1.10873   -5.50493
C     -3.51914    2.67006   -7.27784
C      0.71173    0.25992   -6.36532
C     -2.98200    1.24817   -7.42639
O     -0.01753   -5.70057  -10.40785
O     -3.82966   -6.33509   -7.98203
O     -0.21845   -5.81477   -6.66128
O     -4.27242    0.22669   -5.33543
O     -1.94951    1.21604   -4.95980
O      0.05275   -0.69523   -5.50056
S     -2.88939    0.45132   -5.78741
Cl     1.24833   -3.20107   -6.30840
H     -3.44071   -4.09134   -7.47287
H     -4.18975   -1.84390   -6.73465
H      0.06169   -8.27788  -10.08371
H      1.03083   -7.64097   -8.76806
H     -3.00658   -8.74293   -7.64282
H     -2.65824   -8.53891   -9.35488
H     -0.60024   -8.18182   -7.10250
H     -0.68703   -9.55891   -8.19337
H      3.40990    3.55293   -4.93964
H      4.47926    2.70063   -6.03997
H      4.76221    1.10003   -4.28804
H      3.43370    1.81755   -3.38660
H      1.71714    3.04992   -6.54797
H      2.70424    1.77439   -7.26188
H      3.25292   -0.30973   -5.56941
H      2.42490   -0.29756   -4.00991
H     -2.05342   -4.91948   -9.20871
H      1.00003    1.58041   -4.73474
H     -4.51960    2.66622   -6.83862
H     -2.86147    3.27210   -6.64637
H     -3.57670    3.13815   -8.26499
H      1.27924   -0.28377   -7.13203
H     -0.04400    0.88332   -6.85552
H     -1.97340    1.22856   -7.84639
H     -3.63472    0.61751   -8.03530
