29   

C        1.1779368216   -1.0525230013    0.1874672831
C        1.5274457179   -2.2013997703    0.8997311740
C        1.0279181628    0.1620876037    0.8607831265
C        1.7176015799   -2.1350873823    2.2842773101
C        1.2140874648    0.2245943053    2.2470899028
C        1.9899005393   -0.0481733366    6.4005314138
C        2.9440828429   -1.0954602704    6.1609219943
C        1.5450919573   -0.9283410801    2.9876474427
C        1.2015942392    0.0118984549    5.2870464126
C       -0.0428085619    0.8342774760    5.2069153462
C       -2.2045602582    1.5280324900    4.2468652728
C       -1.4034487829   -0.8013372907    3.8976741615
N        2.7428317510   -1.6068069115    4.9743594774
N        1.7321341875   -0.8968843487    4.3879068174
N       -1.1220761567    0.5560525508    4.3577391650
O       -0.1681579353    1.7764317741    5.9949470229
H        1.0328556352   -1.1021964108   -0.8860968798
H        1.6547691208   -3.1454760417    0.3814080261
H        0.7730347396    1.0596101867    0.3081165106
H        1.9936295916   -3.0321718553    2.8282100800
H        1.1132220996    1.1826593135    2.7432324366
H        1.8670223407    0.5215146537    7.3145991983
H        3.6932183003   -1.4341806599    6.8672494269
H       -2.8048573291    1.3306399269    3.3530642872
H       -1.8010992496    2.5420244309    4.1564670443
H       -2.8506721445    1.4787109880    5.1291717404
H       -2.4608062609   -1.0378185131    4.0539488018
H       -0.8310457503   -1.5436264180    4.4621668193
H       -1.1822543339   -0.9047586269    2.8312510522
29   

C        1.1714645174   -1.0186200079    0.1712704518
C        1.5366879363   -2.1648768203    0.8796069463
C        1.0096759285    0.1921930498    0.8481474190
C        1.7295599512   -2.1000437465    2.2639316523
C        1.1992061538    0.2533688338    2.2338748405
C        1.9061969369   -0.0955444252    6.4252125744
C        2.8656955819   -1.1391162999    6.1875802621
C        1.5444373867   -0.8975185263    2.9718237990
C        1.1649125257    0.0005662406    5.2839304068
C       -0.0354678080    0.8745839356    5.1241344206
C       -2.2044504857    1.5081389532    4.1281082191
C       -1.4186791230   -0.8521612555    3.9621717794
N        2.7137736604   -1.6051009862    4.9746546504
N        1.7287160745   -0.8712500517    4.3734629259
N       -1.1384351231    0.5332245541    4.3308396637
O       -0.0809562703    1.9386467130    5.7490483772
H        1.0235111097   -1.0669753475   -0.9019469125
H        1.6733621688   -3.1060109218    0.3583817255
H        0.7433829326    1.0884806471    0.2988324136
H        2.0161173400   -2.9961648297    2.8039148214
H        1.0917611331    1.2112448761    2.7288023010
H        1.7595152096    0.4586244437    7.3450268225
H        3.5854619269   -1.5050722551    6.9106641210
H       -2.8069907975    1.2379673785    3.2550970798
H       -1.7862363057    2.5032565002    3.9441630478
H       -2.8521898715    1.5501578601    5.0094986865
H       -2.4781354823   -1.0759962812    4.1226390048
H       -0.8524163633   -1.5551703429    4.5808794212
H       -1.1834712624   -1.0275224723    2.9080540337
29   

C        1.1521730717   -0.9909893688    0.1837447519
C        1.5194993905   -2.1308106983    0.9010671825
C        1.0049085715    0.2279853411    0.8485055931
C        1.7274265120   -2.0516207081    2.2825993054
C        1.2105264995    0.3039111834    2.2309767187
C        1.8722780534   -0.0774726043    6.4567444778
C        2.8206944685   -1.1334437432    6.2264159461
C        1.5560980979   -0.8405331291    2.9798355157
C        1.1735022961    0.0527941478    5.2934849039
C        0.0269390464    0.9823926843    5.0549213552
C       -2.1532269413    1.5731928787    4.0412800978
C       -1.4238974004   -0.8143654437    4.1043039066
N        2.7037952319   -1.5668754859    4.9971074785
N        1.7509629454   -0.8029417044    4.3808963546
N       -1.1179590090    0.5927427876    4.3490272550
O        0.0913661450    2.1411820182    5.4759504359
H        0.9917466139   -1.0502892249   -0.8871080668
H        1.6455592456   -3.0783208772    0.3888774591
H        0.7380664428    1.1199478232    0.2924124289
H        2.0140620071   -2.9440052600    2.8285823348
H        1.1178037218    1.2708415128    2.7109136927
H        1.7150184211    0.4703948281    7.3782806383
H        3.5102967401   -1.5281142137    6.9636557230
H       -2.7251682085    1.2566848637    3.1633012232
H       -1.7117660062    2.5477815650    3.8087707670
H       -2.8344946197    1.6835528394    4.8907426619
H       -2.4900611312   -1.0013519746    4.2673112523
H       -0.8797870854   -1.4692242619    4.7921987700
H       -1.1753392460   -1.0888580188    3.0745468810
29   

C        1.1795679784   -1.0150832910    0.1570708413
C        1.5422816609   -2.1669472479    0.8569586106
C        1.0594626831    0.1983901970    0.8365919652
C        1.7711837728   -2.1053685510    2.2361566897
C        1.2870601154    0.2571009184    2.2163133012
C        1.8880708419   -0.2802175342    6.4697977471
C        2.8259053802   -1.3406624025    6.2157887132
C        1.6264430059   -0.8998966993    2.9496619383
C        1.2447127771   -0.0707515946    5.2871170736
C        0.1549721515    0.9173344362    5.0037230148
C       -2.0453175262    1.5106876558    4.0160150080
C       -1.3852332459   -0.8895002640    4.2429571004
N        2.7534859072   -1.6987702392    4.9587202157
N        1.8384089579   -0.8837426295    4.3497872294
N       -1.0414641386    0.5216789105    4.3944428116
O        0.3357994361    2.1149169581    5.2399922055
H        1.0021483570   -1.0605750950   -0.9117526577
H        1.6479991007   -3.1104574817    0.3329936647
H        0.7973893151    1.1001885174    0.2942439188
H        2.0526643786   -3.0081949359    2.7673298107
H        1.2189830049    1.2230082182    2.7022608028
H        1.7118770209    0.2252010614    7.4116690804
H        3.4790318589   -1.7899036419    6.9550102346
H       -2.5604424123    1.1921347469    3.1043153810
H       -1.5894366055    2.4835087388    3.8061152179
H       -2.7794364031    1.6299265834    4.8188416504
H       -2.4593311871   -1.0348673469    4.3957531961
H       -0.8722863102   -1.5092210511    4.9853700422
H       -1.1232870546   -1.2414317169    3.2402824125
29   

C        1.2141370035   -1.0246998604    0.1159966821
C        1.5980433937   -2.1650533348    0.8228386424
C        1.0718147473    0.1900630463    0.7883947149
C        1.8255766131   -2.0908027605    2.2016240142
C        1.2984158771    0.2615791028    2.1676926783
C        1.7677223601   -0.3820022406    6.4639982136
C        2.7384335634   -1.4128544196    6.2125067698
C        1.6593002186   -0.8839568927    2.9092800195
C        1.2135677790   -0.1039027503    5.2510641705
C        0.1515225683    0.9037023445    4.9194406818
C       -2.1102306959    1.4496253166    4.0333092674
C       -1.4390414220   -0.9346279165    4.4068406207
N        2.7594114979   -1.6936952794    4.9339694018
N        1.8712832429   -0.8589279695    4.3103314219
N       -1.0916903209    0.4833737447    4.4356356385
O        0.4045305853    2.1100874189    4.9669861610
H        1.0377662027   -1.0797159886   -0.9525227691
H        1.7211880692   -3.1096374013    0.3047088239
H        0.7940809944    1.0840136325    0.2408885064
H        2.1229109671   -2.9862816540    2.7364329387
H        1.2163915686    1.2315386655    2.6423817693
H        1.5237262828    0.0667390101    7.4191610249
H        3.3489438002   -1.8961532652    6.9665225353
H       -2.1803342876    1.4846920279    2.9417840800
H       -1.8864117616    2.4565814225    4.3989498937
H       -3.0841128596    1.1675073944    4.4454246731
H       -2.5198541189   -1.0673642855    4.5166924288
H       -0.9654374232   -1.4774043971    5.2312015977
H       -1.1270538879   -1.3818003144    3.4576263807
29   

C        1.3453755356   -1.0887032848    0.0214717919
C        1.7227084450   -2.2079463434    0.7639010249
C        1.1775966308    0.1397848555    0.6616987493
C        1.9190584938   -2.0983455216    2.1450842511
C        1.3729588953    0.2463501636    2.0436615605
C        1.6199113524   -0.4556363478    6.3879812736
C        2.6255174065   -1.4590474947    6.1702354890
C        1.7287731414   -0.8760458765    2.8214686538
C        1.1899171973   -0.1014393362    5.1446022832
C        0.1405804474    0.9081074520    4.7721946150
C       -2.2021074699    1.4592819500    4.1574750777
C       -1.5444859803   -0.9089340985    4.6681916686
N        2.7638407064   -1.6691334726    4.8858189132
N        1.9169162870   -0.8176668693    4.2259872598
N       -1.1725382039    0.4960988835    4.5354506400
O        0.4462165882    2.0917545157    4.6070035900
H        1.1940023668   -1.1704249181   -1.0491374798
H        1.8653775584   -3.1635791705    0.2717601693
H        0.9055268022    1.0183949234    0.0872002738
H        2.2119657890   -2.9796258399    2.7051115881
H        1.2764531513    1.2281737657    2.4870810110
H        1.2804158182   -0.0680496487    7.3406171487
H        3.1770540486   -1.9735141780    6.9486687982
H       -2.3290342447    1.4647625995    3.0704925151
H       -1.9448241324    2.4711086698    4.4866602828
H       -3.1562392403    1.2014316112    4.6275019447
H       -2.6180145261   -1.0073460131    4.8566586610
H       -1.0265735053   -1.3792574273    5.5098912434
H       -1.2998822251   -1.4511030061    3.7489852052
29   

C        1.6081454494   -1.0954480720   -0.1267257347
C        1.8699537403   -2.2298010074    0.6414952562
C        1.4635334545    0.1430104953    0.4995761338
C        1.9727499253   -2.1240862001    2.0330116706
C        1.5676367124    0.2452202837    1.8919648494
C        1.3933163638   -0.6062738805    6.2477612087
C        2.4214484167   -1.5929471973    6.0752359031
C        1.8031757059   -0.8896858615    2.6944387000
C        1.1108955451   -0.1518180714    4.9932783361
C        0.0592284850    0.8472490384    4.6035484399
C       -2.3166186176    1.5288534034    4.4346287404
C       -1.7249658488   -0.8153564601    5.0919127133
N        2.6895476663   -1.7235427107    4.8020711711
N        1.9070760131   -0.8366558515    4.1082084460
N       -1.2947551153    0.5374130395    4.7520443830
O        0.3782588206    1.9764862922    4.2209970149
H        1.5293616240   -1.1734849009   -1.2053419284
H        1.9960800934   -3.1939758124    0.1617210338
H        1.2823435516    1.0330418551   -0.0928458815
H        2.1780639752   -3.0177527200    2.6118720189
H        1.5037422629    1.2329714772    2.3241779325
H        0.9427373153   -0.2924394587    7.1812162910
H        2.8952298976   -2.1529032715    6.8732108944
H       -2.5505055037    1.5003944436    3.3658022569
H       -1.9819066978    2.5369825051    4.6998788084
H       -3.2294950191    1.3287252956    5.0043663987
H       -1.8845824763   -0.9041702568    6.1707358215
H       -0.9907931652   -1.5634157390    4.7763945047
H       -2.6590860440   -1.0549167149    4.5739984568
29   

C        1.7851883858   -1.0970395655   -0.2386428051
C        1.9363479349   -2.2445194902    0.5400307342
C        1.6863638670    0.1493609099    0.3816511772
C        1.9723114434   -2.1428493452    1.9350714803
C        1.7269966752    0.2470422415    1.7778978824
C        1.2646639509   -0.7212225712    6.1185052513
C        2.3454213715   -1.6522825608    5.9682281252
C        1.8455807478   -0.8992164785    2.5878541706
C        1.0225179113   -0.2308855503    4.8669839108
C       -0.0455616581    0.7431753639    4.4728855156
C       -2.3837077285    1.5519094302    4.5925350597
C       -1.8159110647   -0.7567305973    5.3745465043
N        2.6837302398   -1.7232956597    4.7082712680
N        1.8956230142   -0.8500845275    4.0033158437
N       -1.3715552187    0.5373902641    4.8665745876
O        0.2399787320    1.8000665705    3.9018810902
H        1.7578484168   -1.1716895578   -1.3199825792
H        2.0294794578   -3.2152213126    0.0659667838
H        1.5915339504    1.0481672035   -0.2174348916
H        2.0949963615   -3.0445571037    2.5247099905
H        1.7101833066    1.2359852347    2.2131155449
H        0.7597383599   -0.4592423575    7.0399773847
H        2.8052096196   -2.2171259272    6.7709186733
H       -2.7499133744    1.4523616163    3.5659122798
H       -1.9755674585    2.5584819993    4.7304226189
H       -3.2261921198    1.4445727650    5.2829768356
H       -1.8092992399   -0.7601619199    6.4686809413
H       -1.1800433251   -1.5691989455    5.0082384988
H       -2.8312532522   -0.9710181876    5.0259404948
29   

C        1.9017114212   -1.1928007407   -0.2495599072
C        3.0254521026   -1.5243484019    0.5088215760
C        0.7014958316   -0.8831841648    0.3921053890
C        2.9470720131   -1.5424909343    1.9061397167
C        0.6276444460   -0.8958913140    1.7899911487
C        1.0417571280   -1.0836709511    6.0896575169
C        2.0322952980   -2.1169567099    5.9522489168
C        1.7540154234   -1.2141912402    2.5786082656
C        0.9058705891   -0.5408580848    4.8435311090
C        0.1120838850    0.6510356256    4.4087066115
C       -1.8792527047    2.1141312172    4.5762558530
C       -1.9259502249   -0.1791432360    5.5768300789
N        2.4252561197   -2.1844017488    4.7069460352
N        1.7121578722   -1.2573757605    3.9944477526
N       -1.1801951465    0.8735390788    4.8952022858
O        0.6328949512    1.5145926555    3.7006846186
H        1.9600770332   -1.1783652642   -1.3320780548
H        3.9607698982   -1.7666566227    0.0170796409
H       -0.1767340507   -0.6345261666   -0.1928880769
H        3.8274376479   -1.8018197816    2.4836474777
H       -0.3261575169   -0.6737440526    2.2493406137
H        0.5730655734   -0.7604824754    7.0104679112
H        2.4151337509   -2.7304088756    6.7596482320
H       -2.3657809807    2.0338851626    3.5991800359
H       -1.1858632574    2.9614269369    4.5611786036
H       -2.6378159913    2.3287025506    5.3356076229
H       -1.8019805856   -0.0944280414    6.6607289334
H       -1.5985215946   -1.1720188296    5.2517814474
H       -2.9915191965   -0.1040941532    5.3372636293
29   

C        1.9870823777   -1.2752000005   -0.2698044981
C        3.1140095194   -1.4947004991    0.5241969485
C        0.7462919578   -1.0622503021    0.3338475456
C        2.9978140816   -1.4981513835    1.9189482940
C        0.6349268660   -1.0590304259    1.7294473721
C        0.9202251483   -1.1665549860    6.0323261337
C        1.9547232793   -2.1589401957    5.9254527410
C        1.7621537404   -1.2642276952    2.5518292597
C        0.8075588372   -0.6158368565    4.7854583254
C        0.0318693726    0.5782836466    4.3326258500
C       -1.8320695220    2.1894300618    4.5714055386
C       -1.9441602196   -0.0174180408    5.7374836428
N        2.4039590653   -2.1926671751    4.6989147494
N        1.6818332730   -1.2894420980    3.9657088271
N       -1.1873565817    0.9285832522    4.9249080787
O        0.4936794417    1.3300982378    3.4714707121
H        2.0748595595   -1.2717984530   -1.3503799710
H        4.0806353325   -1.6608146090    0.0623307884
H       -0.1332736030   -0.8993196069   -0.2784745698
H        3.8794016021   -1.6703488781    2.5262647672
H       -0.3428006604   -0.9074319360    2.1679243446
H        0.4216280952   -0.8666105671    6.9446815166
H        2.3290336080   -2.7655478826    6.7419749365
H       -2.3950108813    2.0788315219    3.6393813733
H       -1.0900435147    2.9852765646    4.4485419947
H       -2.5161885220    2.5030239209    5.3662508400
H       -1.7209768751    0.1256217639    6.7991208925
H       -1.7210734907   -1.0508210316    5.4531909337
H       -3.0184378897    0.1261116511    5.5830797150
29   

C        2.2087118226   -1.5516739701   -0.1633664145
C        3.3148599661   -1.6228946942    0.6854726952
C        0.9263109250   -1.4407252961    0.3784026124
C        3.1360342240   -1.5800895830    2.0728645528
C        0.7521290388   -1.3907342078    1.7668175086
C        0.8367157223   -1.3148123580    6.0715110291
C        1.9172441983   -2.2609910395    6.0305224809
C        1.8557936542   -1.4449006036    2.6418823562
C        0.7604808170   -0.7808675991    4.8125864785
C        0.0067297344    0.4053014798    4.3073603893
C       -1.7362034473    2.1486824185    4.5116788433
C       -1.9019652323    0.0769239149    5.8915026375
N        2.4363768365   -2.2803823694    4.8327833791
N        1.7132889139   -1.4207112316    4.0503966737
N       -1.1416205809    0.8888939493    4.9487870766
O        0.3959766508    1.0184575997    3.3103786921
H        2.3450278175   -1.5835183415   -1.2383917769
H        4.3132733805   -1.7093480059    0.2720280781
H        0.0636728141   -1.3916914442   -0.2761144510
H        4.0004859317   -1.6377471155    2.7247569948
H       -0.2518394072   -1.3144271279    2.1647159038
H        0.2968790517   -1.0269257673    6.9631560133
H        2.2740083546   -2.8428788990    6.8724999644
H       -2.3415117772    1.9908258800    3.6135982309
H       -0.9586692508    2.8883852799    4.2937290427
H       -2.3702800353    2.5659585319    5.3003589704
H       -1.5839477857    0.2824265375    6.9181540491
H       -1.7871390462   -0.9899681657    5.6748317721
H       -2.9704864126    0.2999200753    5.8072464754
29   

C        2.7276465429   -0.9967060001   -0.1002530292
C        2.7162454732    0.0278242808    0.8492627864
C        2.2466721192   -2.2624015879    0.2409116040
C        2.2141837979   -0.2113328375    2.1344323727
C        1.7524867282   -2.4988912142    1.5286939655
C        0.5689632892   -1.5492208826    5.8876447678
C        1.3120836140   -2.7635118812    5.6996682676
C        1.7070059695   -1.4756394019    2.4934491958
C        0.5018802141   -0.9512793892    4.6548423656
C       -0.3477061885    0.1682939285    4.1472933270
C       -2.0067684048    1.9826366838    4.4160877552
C       -0.7667713270    1.1582182272    6.4132320087
N        1.6510420221   -2.8784854779    4.4455826321
N        1.2167671990   -1.7581934030    3.7907118083
N       -1.0673210334    1.0248192752    4.9938975541
O       -0.4298266536    0.3979882272    2.9376911475
H        3.1092132226   -0.8107100161   -1.0977597387
H        3.0936562107    1.0106255886    0.5914565531
H        2.2534623740   -3.0625865888   -0.4904366220
H        2.2167996303    0.5922583658    2.8604451087
H        1.3837718579   -3.4848580514    1.7881924424
H        0.0826597583   -1.2741728690    6.8123089482
H        1.5242904596   -3.4950892362    6.4707605485
H       -2.7241691677    2.3197922521    5.1709783730
H       -2.5807210920    1.5194106678    3.6065508945
H       -1.4691410873    2.8507392007    4.0220614874
H        0.3015616571    1.0110115018    6.6011472850
H       -1.3542727295    0.4446112800    6.9989689000
H       -1.0071815805    2.1687254737    6.7591692177
29   

C        2.7300714717   -0.9569029358   -0.0573424028
C        2.5454357475    0.0778161581    0.8622130706
C        2.4001247258   -2.2659997896    0.2983967133
C        2.0220084159   -0.1956465975    2.1317559252
C        1.8840570185   -2.5363385802    1.5709102997
C        0.4250883190   -1.6348751337    5.8614502972
C        1.2233476717   -2.8193208195    5.7052941753
C        1.6671468281   -1.5073306962    2.5064508604
C        0.3790611164   -1.0498206716    4.6238956977
C       -0.4803542886    0.0571704468    4.1083579227
C       -2.0203863230    1.9674973746    4.4192857860
C       -0.5604848255    1.2452312396    6.3090784442
N        1.6174756486   -2.9207383079    4.4648282179
N        1.1583423117   -1.8218538512    3.7898414179
N       -1.0535617935    1.0144013591    4.9563852313
O       -0.7360489795    0.1454218243    2.9048340872
H        3.1289737209   -0.7450763278   -1.0428802375
H        2.8061849487    1.0950003764    0.5933327902
H        2.5410530279   -3.0742843979   -0.4101612962
H        1.8969750214    0.6207812305    2.8316802539
H        1.6322474749   -3.5561815251    1.8393828147
H       -0.1092655762   -1.3605170366    6.7606238989
H        1.4358348047   -3.5402333180    6.4862780899
H       -2.6241777352    2.3953540180    5.2258633601
H       -2.7076914861    1.4714563544    3.7258979230
H       -1.5035348463    2.7763010366    3.8933743539
H        0.4994111104    0.9842498396    6.3921442840
H       -1.1420012928    0.6665058840    7.0331664959
H       -0.6423557305    2.3063022340    6.5659538449
29   

C        2.7277254894   -0.8370068362    0.0198379497
C        2.4157696523    0.1865089389    0.9167132205
C        2.5223899616   -2.1672649902    0.3897532681
C        1.8900839373   -0.1198465222    2.1776235349
C        2.0035718922   -2.4703183788    1.6538123504
C        0.3230598402   -1.6729708256    5.8834394300
C        1.1801590332   -2.8192890997    5.7499733823
C        1.6607349060   -1.4556652639    2.5676247648
C        0.3014002958   -1.0834634010    4.6494969952
C       -0.5526318550    0.0291167103    4.1342942633
C       -1.9518349188    2.0429745679    4.4719892797
C       -0.3550155742    1.3295931100    6.2562436860
N        1.6359941905   -2.8851055888    4.5271583895
N        1.1515583578   -1.8024286367    3.8430418466
N       -0.9866320770    1.0668259035    4.9678474692
O       -0.9594893640    0.0132212175    2.9705622574
H        3.1292365824   -0.5999700975   -0.9589175411
H        2.5809388778    1.2207903105    0.6372419463
H        2.7624421434   -2.9671434999   -0.3015125630
H        1.6735022482    0.6941760260    2.8570692815
H        1.8487148573   -3.5070066928    1.9312606326
H       -0.2536417009   -1.4115564739    6.7609596413
H        1.3925464826   -3.5384257045    6.5326122802
H       -2.4807902902    2.5130786395    5.3070618095
H       -2.7051284268    1.5600684790    3.8407881327
H       -1.4424108532    2.8179547604    3.8908756297
H        0.6830496296    0.9819998300    6.2667009575
H       -0.9116770286    0.8416635478    7.0620942211
H       -0.3278460584    2.4064562524    6.4515417984
29   

C        2.7447360065   -0.7883200098    0.1130341307
C        2.3133630803    0.2098962329    0.9880363236
C        2.6668836354   -2.1271729119    0.4994195371
C        1.7962214175   -0.1306862508    2.2435359270
C        2.1554263854   -2.4644543508    1.7578390911
C        0.2889340889   -1.8080153154    5.9323405756
C        1.2129654209   -2.9034957532    5.8148667290
C        1.6944663991   -1.4780724129    2.6510763063
C        0.2767980633   -1.2081992148    4.7051343263
C       -0.5889520402   -0.0975406828    4.1991355012
C       -1.8392095939    2.0133606379    4.5469988097
C       -0.1083982965    1.2986309703    6.2059396770
N        1.7195184459   -2.9220258981    4.6095360841
N        1.1959826240   -1.8599714072    3.9214251208
N       -0.8759988074    1.0141020820    4.9981567052
O       -1.1541739580   -0.2030682764    3.1093466093
H        3.1408494694   -0.5247460895   -0.8611743086
H        2.3809081561    1.2518463786    0.6962991949
H        3.0007750164   -2.9076934402   -0.1748559445
H        1.4946389553    0.6722864353    2.9026264347
H        2.1004042422   -3.5083825387    2.0459293683
H       -0.3228206665   -1.5722321339    6.7938364671
H        1.4383148938   -3.6206769386    6.5956714114
H       -2.2902303781    2.5198852630    5.4061022817
H       -2.6529998146    1.5480284356    3.9812565167
H       -1.3447938330    2.7565649306    3.9137733359
H        0.9027604092    0.8839191811    6.1410492916
H       -0.6127045201    0.8859382199    7.0849962680
H        0.0018232757    2.3797296768    6.3383471435
29   

C        2.6481330186   -0.6365546786    0.0868471660
C        1.2749435517   -0.4696003871    0.2726784982
C        3.4096304124   -1.2462125782    1.0840126583
C        0.6664492121   -0.9008019834    1.4577956927
C        2.7982963343   -1.6719357865    2.2684130755
C        0.0051249404   -1.9538553240    5.7524805729
C        0.8260657121   -3.1102804154    5.5372923312
C        1.4181833144   -1.4891312252    2.4935284908
C        0.0332006179   -1.2568449377    4.5782598119
C       -0.6284140867    0.0574184245    4.2958157052
C       -1.2110862579    2.3708143673    4.9630265069
C        0.5877561346    1.1313243487    6.1839086828
N        1.3253286831   -3.0685111964    4.3306517692
N        0.8466647000   -1.9444739466    3.7077947572
N       -0.4636232491    1.1352277856    5.1715426430
O       -1.4220966647    0.1793742016    3.3577346148
H        3.1181128593   -0.3061788077   -0.8327120566
H        0.6723945717   -0.0172254288   -0.5070916520
H        4.4743232747   -1.3939238193    0.9415915921
H       -0.4075614828   -0.8087519773    1.5336092402
H        3.4045652083   -2.1479837932    3.0310514963
H       -0.5313608676   -1.7007637970    6.6584745135
H        1.0126375083   -3.8930915071    6.2633525524
H       -1.2948214063    2.9272366401    5.9018506438
H       -2.2283903424    2.1591367246    4.6179920894
H       -0.7055419939    2.9974768943    4.2216209517
H        1.4166703038    0.4764331966    5.8964802427
H        0.1880620469    0.8034361531    7.1482257270
H        1.0065374004    2.1363571290    6.2974546095
29   

C        2.6283593414   -0.5026440776    0.2465264266
C        1.2646748166   -0.2959830736    0.4576681830
C        3.3724202847   -1.2101833668    1.1905726024
C        0.6487756808   -0.7843894490    1.6161785845
C        2.7537164423   -1.6963805539    2.3476777292
C       -0.1490747327   -2.0884160174    5.7863105654
C        0.7362116106   -3.2004889774    5.5865004269
C        1.3831036885   -1.4776691726    2.5998532890
C       -0.0835061521   -1.3596964462    4.6353602116
C       -0.7724555528   -0.0572251584    4.3434924891
C       -1.1300510787    2.3494507707    4.8100447724
C        0.7463706741    1.1178591456    5.9238439278
N        1.3011982373   -3.1008612134    4.4114518653
N        0.8049128516   -1.9821670550    3.7929969639
N       -0.4195622602    1.0974633251    5.0459316885
O       -1.7060948214   -0.0077137179    3.5378058060
H        3.1042543823   -0.1257641457   -0.6519143404
H        0.6748934915    0.2335170143   -0.2824273412
H        4.4300044308   -1.3860095414    1.0283270485
H       -0.4187014802   -0.6475048392    1.7071651390
H        3.3497284445   -2.2450474071    3.0685163208
H       -0.7428350917   -1.8796207856    6.6676185574
H        0.9190182112   -3.9944455286    6.3013415106
H       -1.0706539022    2.9919826534    5.6941358718
H       -2.1911112067    2.1674729734    4.6106558449
H       -0.6920500488    2.8765735930    3.9566962213
H        1.4917909405    0.3755608285    5.6212843863
H        0.4473759250    0.9231492980    6.9582177761
H        1.2383129415    2.0944666051    5.8744909995
29   

C        2.5704197001   -0.2866526560    0.4812259854
C        1.2137612496   -0.0622987603    0.7185356460
C        3.3004799544   -1.0904541678    1.3571149463
C        0.5911988560   -0.6288562431    1.8369033867
C        2.6753273968   -1.6569893623    2.4735720696
C       -0.3727692911   -2.2834790845    5.8067435462
C        0.5455658756   -3.3656296768    5.5807346018
C        1.3131998354   -1.4235560366    2.7526708647
C       -0.2064912526   -1.4432217280    4.7471847257
C       -0.9112521340   -0.1459593094    4.4653310482
C       -0.9879234186    2.3340714874    4.5627374789
C        0.9614291913    1.0828092561    5.5314297901
N        1.1981517467   -3.1605679304    4.4649098506
N        0.7277699842   -1.9998659459    3.9088703224
N       -0.3249921096    1.0640906405    4.8422116026
O       -1.9747776908   -0.1378004425    3.8403775780
H        3.0519372041    0.1524580660   -0.3854446027
H        0.6353867203    0.5437294000    0.0298832363
H        4.3525462039   -1.2780931980    1.1734327605
H       -0.4715252894   -0.4644773664    1.9529334412
H        3.2596348829   -2.2786924196    3.1430093536
H       -1.0502674204   -2.1666683998    6.6436122415
H        0.6870447907   -4.2157692293    6.2380569494
H       -0.8169513419    3.0418824628    5.3797701381
H       -2.0712200960    2.2073857396    4.4686952672
H       -0.6011463567    2.7619564747    3.6326891490
H        1.0456889316    0.2518396233    6.2387201821
H        1.0771468784    2.0064404378    6.1068946689
H        1.7780756516    1.0188124850    4.8049986056
29   

C        2.5408085510   -0.1978491199    0.6171895427
C        1.1786672971   -0.0095457329    0.8561514915
C        3.2889531643   -1.0014840158    1.4784985007
C        0.5685885824   -0.6115560117    1.9626318928
C        2.6764851718   -1.6035991668    2.5833460936
C       -0.5162650600   -2.4495677888    5.7749744359
C        0.4466721372   -3.4948784427    5.5553743646
C        1.3102443373   -1.4050314186    2.8642150195
C       -0.2625598471   -1.5171608891    4.8148237542
C       -0.9730050314   -0.2187900299    4.5643216072
C       -0.9456505594    2.2650561931    4.4030354996
C        1.0500255998    1.0316883571    5.2822975340
N        1.1914035702   -3.1955068504    4.5211089432
N        0.7359187914   -2.0097754997    4.0101018349
N       -0.2957104288    0.9953918341    4.7166652524
O       -2.1226996172   -0.2166835826    4.1173351724
H        3.0131186238    0.2693282364   -0.2398610058
H        0.5876504980    0.5968340003    0.1786175504
H        4.3452685788   -1.1609654694    1.2924273397
H       -0.4981240606   -0.4724307755    2.0875819729
H        3.2720616194   -2.2248939985    3.2433371309
H       -1.2730185989   -2.4103704694    6.5489419054
H        0.5522885039   -4.3871238174    6.1616613499
H       -0.7454593941    2.9984623995    5.1903776746
H       -2.0327166757    2.1607278935    4.3308640347
H       -0.5695560464    2.6512737839    3.4506987115
H        1.1934766421    0.2351793542    6.0195151426
H        1.2238054261    1.9803920662    5.7995876641
H        1.7971000875    0.9245598250    4.4893805525
29   

C        2.5104204717   -0.1920791860    0.6605993169
C        1.1463041226   -0.0228378727    0.9039999829
C        3.2747346453   -0.9789545661    1.5236309756
C        0.5503897479   -0.6272137411    2.0168874754
C        2.6762705618   -1.5837760920    2.6346583465
C       -0.6157996423   -2.5498724261    5.7165455829
C        0.3736367412   -3.5732421103    5.5108931104
C        1.3088815261   -1.4032924310    2.9191131373
C       -0.3044776188   -1.5586529115    4.8350289968
C       -1.0105165632   -0.2511427580    4.6457890308
C       -0.9865785749    2.2154722755    4.3554220475
C        1.0798196615    1.0268334715    5.1072250428
N        1.1850950035   -3.2121579923    4.5491982598
N        0.7459152466   -2.0083626394    4.0691247716
N       -0.3084383553    0.9597044445    4.6590938291
O       -2.2195759183   -0.2362045782    4.3993686219
H        2.9721582579    0.2771037613   -0.2011411125
H        0.5438432457    0.5711542173    0.2255634477
H        4.3326057876   -1.1233441885    1.3339247741
H       -0.5171522228   -0.5020801437    2.1526837671
H        3.2821936996   -2.1928348510    3.2967607935
H       -1.4216825005   -2.5555502571    6.4405173778
H        0.4499922386   -4.4939069942    6.0778032470
H       -1.3345435590    2.6895950403    5.2783542390
H       -1.8441804088    2.0573207872    3.6937790137
H       -0.3019719805    2.8960082581    3.8394626727
H        1.3240835132    0.1998051504    5.7815455080
H        1.2520137702    1.9526733203    5.6651975107
H        1.7599641923    1.0027449872    4.2501083072
29   

C        0.8428046000   -1.7899785872    0.3650752475
C        0.0867622059   -2.2740571585    1.4344570417
C        1.8998155156   -0.9106992759    0.6064537352
C        0.3782131843   -1.8680545892    2.7419380032
C        2.1911063543   -0.5087809653    1.9147873083
C        1.6603330461   -0.2222270378    6.4951467989
C        3.0118668871   -0.1383643186    6.0114318749
C        1.4247014301   -0.9598090446    3.0063039612
C        0.8812775643   -0.3899416200    5.3891353612
C       -0.6118978269   -0.4657965447    5.3659277588
C       -2.8220156564   -0.0269344981    4.3400180928
C       -0.8178513907    1.2355219732    3.5491259945
N        3.0213678676   -0.2818165034    4.7106102798
N        1.7330983056   -0.5135367663    4.3132439591
N       -1.3788377138    0.1796508786    4.3880979926
O       -1.1962928435   -1.1337085402    6.2242191178
H        0.6164495885   -2.1034911971   -0.6480655868
H       -0.7233092219   -2.9719903702    1.2535954275
H        2.4972699934   -0.5392709724   -0.2188306761
H       -0.2081842760   -2.2859638954    3.5515023975
H        3.0160299554    0.1735280899    2.0896082658
H        1.3261496132   -0.1265438170    7.5214398731
H        3.8870579715    0.0408529416    6.6252405338
H       -3.3245226130    0.6480030152    5.0398953637
H       -3.0774920270   -1.0605908389    4.5950920953
H       -3.1978294526    0.1617524035    3.3294200021
H       -0.5892490495    0.8523786704    2.5498820895
H        0.0912938709    1.6577268321    3.9887319089
H       -1.5330260945    2.0585251236    3.4520336226
29   

C        0.8528289442   -1.7922761697    0.3524565071
C        0.0721984823   -2.2481753088    1.4169804681
C        1.9164298049   -0.9215024025    0.5964333320
C        0.3463189964   -1.8225345467    2.7222131064
C        2.1908259353   -0.5009883071    1.9024192151
C        1.6041290897   -0.2444186257    6.4799903823
C        2.9633294757   -0.1922407775    6.0152794760
C        1.4004633169   -0.9244176773    2.9875458690
C        0.8285750224   -0.3507885334    5.3626327906
C       -0.6643652449   -0.3104450103    5.3607007548
C       -2.8729659816    0.1163376939    4.3420960597
C       -0.8466707594    1.2097111596    3.3856155558
N        2.9836605880   -0.2897811847    4.7108807429
N        1.6935603540   -0.4650112989    4.2922380453
N       -1.4199696558    0.2437501369    4.3194153959
O       -1.2704062996   -0.7547579636    6.3405667141
H        0.6402087531   -2.1205507979   -0.6590043030
H       -0.7437297883   -2.9385517737    1.2336045019
H        2.5323638968   -0.5715217828   -0.2246832308
H       -0.2597695593   -2.2122217524    3.5314280220
H        3.0215465577    0.1733803733    2.0809224756
H        1.2609852034   -0.1540312048    7.5040810438
H        3.8361938999   -0.0625195515    6.6446584532
H       -3.3058046942    0.8382948447    5.0418180535
H       -3.1660367311   -0.8944144645    4.6445742405
H       -3.2867971039    0.2942421172    3.3444545667
H       -0.6793006103    0.7498750902    2.4069543455
H        0.0972033309    1.6185779514    3.7592434930
H       -1.5272461327    2.0575828077    3.2582167525
29   

C        0.8812620923   -1.7673228239    0.3532036951
C        0.1070354454   -2.2344599661    1.4178688244
C        1.9336162041   -0.8827736052    0.5971099413
C        0.3767137592   -1.8066803318    2.7235195967
C        2.2039279206   -0.4607164295    1.9033598242
C        1.6359062705   -0.3360782898    6.4897614875
C        2.9929140316   -0.2771768841    6.0210095987
C        1.4202553917   -0.8965977162    2.9880870676
C        0.8486586548   -0.3790486702    5.3747629033
C       -0.6385502552   -0.2458099821    5.4150934510
C       -2.8733392378    0.1511749213    4.4538512161
C       -0.8747794862    1.1382080548    3.3488410423
N        3.0051222121   -0.3030637515    4.7136780368
N        1.7112774910   -0.4421551600    4.2940416128
N       -1.4198259869    0.2281028579    4.3528427497
O       -1.2151247553   -0.4913273187    6.4788148774
H        0.6724967064   -2.0972045486   -0.6585523861
H       -0.7003277328   -2.9346357894    1.2338357904
H        2.5444408114   -0.5238945914   -0.2240192853
H       -0.2242372669   -2.2001501324    3.5348463681
H        3.0267183433    0.2229887529    2.0833088694
H        1.3011868690   -0.2734216843    7.5189349059
H        3.8702915814   -0.1895360831    6.6513754962
H       -3.2494882783    0.9350360767    5.1190176033
H       -3.1789381915   -0.8251044427    4.8445067823
H       -3.3315284683    0.2700992995    3.4668767468
H       -0.7622238095    0.6326554945    2.3851869895
H        0.0907522450    1.5482432543    3.6601329364
H       -1.5469158510    1.9915106640    3.2129837871
29   

C        0.9128223048   -1.7388175427    0.3569667826
C        0.1380876462   -2.2144780082    1.4177568744
C        1.9529651424   -0.8410713914    0.6057520439
C        0.3954166838   -1.7823886610    2.7246324869
C        2.2112238660   -0.4151397721    1.9131404404
C        1.6284804581   -0.4056200175    6.4991413065
C        2.9875087709   -0.3518970537    6.0369497338
C        1.4271289798   -0.8605022282    2.9933554911
C        0.8396798440   -0.3864030081    5.3829921666
C       -0.6360253400   -0.1487654662    5.4518281987
C       -2.8899656448    0.2194767152    4.5357772487
C       -0.9186247495    1.0920852721    3.3050714113
N        3.0033423857   -0.3131645074    4.7305232014
N        1.7089684218   -0.4093213094    4.3016038114
N       -1.4398605792    0.2436122918    4.3731917577
O       -1.1724074236   -0.1844767379    6.5623258979
H        0.7140619506   -2.0721374918   -0.6556875993
H       -0.6598883822   -2.9242102848    1.2295044155
H        2.5641772676   -0.4756606905   -0.2122272029
H       -0.2056190211   -2.1786574117    3.5346762107
H        3.0255859987    0.2772017407    2.0984866228
H        1.2955514290   -0.3620342946    7.5300284440
H        3.8642101743   -0.3090863533    6.6728688665
H       -3.2190468131    1.0723158325    5.1381830155
H       -3.2036124391   -0.7065469305    5.0291005953
H       -3.3844900831    0.2585140386    3.5600260005
H       -0.8501532880    0.5384045989    2.3641978006
H        0.0624003379    1.5030430053    3.5612279338
H       -1.5831916682    1.9479968181    3.1496651209
