22   

C        1.8244054038   -0.2097470572    0.1159061947
C        0.5376998360   -0.4647909643    0.5833195204
C        2.9235434494   -0.4440657519    0.9447692856
C        0.3550260631   -0.9587185568    1.8757498948
C        2.7602446371   -0.9282505904    2.2537354472
C        1.4488909178   -1.1976730204    2.7257623037
C        3.9531985060   -1.1290921218    3.0993932345
C        5.2694877430   -0.8026800157    2.8750549637
C        1.1974311494   -1.7597182469    4.1049587229
C        6.3746217888   -1.6108833429    2.2243155503
H        1.9726322764    0.1725388006   -0.8874887822
H       -0.3194693219   -0.2827491963   -0.0549133315
H        3.9185758493   -0.2365775599    0.5693950573
H       -0.6525849192   -1.1591624306    2.2210077395
H        3.7280484264   -1.3001246727    4.1442429102
H        5.7047720003   -0.3597546611    3.7646121995
H        1.7820251280   -2.6731804489    4.2521487986
H        1.4758274537   -1.0260588855    4.8674020021
H        0.1410786915   -2.0107721770    4.2393640680
H        7.1817547219   -1.8018438639    2.9380645174
H        5.9824536058   -2.5703158235    1.8735287184
H        6.7814453723   -1.0647658189    1.3683504758
22   

C        1.9189541647   -0.2820410614    0.1171140264
C        0.6177273968   -0.5044248584    0.5598455516
C        2.9925848816   -0.4806784338    0.9876553342
C        0.3949755086   -0.9295622472    1.8701327043
C        2.7888643338   -0.8920198415    2.3165916628
C        1.4623766603   -1.1284035882    2.7629589392
C        3.9509288606   -1.0579426601    3.2115149556
C        5.2683485942   -0.7942056483    2.9670551580
C        1.1691970875   -1.6324698230    4.1562358092
C        6.2419611261   -1.5944965357    2.1295795955
H        2.0982574118    0.0479053183   -0.8996880285
H       -0.2195273511   -0.3516153469   -0.1116276426
H        3.9975495308   -0.2959826603    0.6280681779
H       -0.6231065490   -1.1101753476    2.1950041326
H        3.7014791647   -1.1380017795    4.2619942594
H        5.7835110598   -0.4391090564    3.8532153942
H        1.7643458871   -2.5267469977    4.3663486410
H        1.4048022235   -0.8602970855    4.8944615859
H        0.1137319514   -1.9006541940    4.2616001715
H        7.0977755736   -1.9076783647    2.7351672961
H        5.7509088946   -2.4864857175    1.7284414365
H        6.6032425833   -0.9872740514    1.2945489096
22   

C        1.9922981528   -0.3556873056    0.1204944287
C        0.6818386351   -0.5519861064    0.5467050526
C        3.0470188143   -0.5057163233    1.0232090459
C        0.4308551008   -0.9008272582    1.8739112509
C        2.8154364435   -0.8377613234    2.3709119676
C        1.4784974148   -1.0457137740    2.7998785824
C        3.9496860461   -0.9540397934    3.3096488035
C        5.2718480682   -0.8033437466    3.0405424708
C        1.1560058501   -1.4865078700    4.2080285618
C        6.1010109956   -1.6096942927    2.0681300118
H        2.1935750061   -0.0819250810   -0.9087896935
H       -0.1404465115   -0.4387762693   -0.1506187903
H        4.0559446253   -0.3338759977    0.6706835249
H       -0.5937675390   -1.0670732678    2.1855640801
H        3.6910352712   -0.9470815967    4.3611773878
H        5.8578701928   -0.5140310480    3.9062421821
H        1.7666279449   -2.3533052596    4.4803683889
H        1.3491902266   -0.6728004031    4.9129133260
H        0.1055628747   -1.7799726037    4.2949386134
H        6.9739706021   -2.0317612533    2.5750286438
H        5.5081844861   -2.4301904695    1.6518116884
H        6.4445428036   -0.9712458316    1.2490068446
22   

C        2.0317402827   -0.4035743297    0.1287576202
C        0.7168361785   -0.5866009327    0.5448097132
C        3.0750299852   -0.5131007192    1.0501870505
C        0.4498407244   -0.8785655978    1.8819922521
C        2.8291929341   -0.7905430184    2.4091641409
C        1.4854417425   -0.9793148861    2.8272448101
C        3.9408906428   -0.8659347598    3.3788418925
C        5.2662531168   -0.8478981216    3.1106868506
C        1.1443668554   -1.3724060076    4.2452093905
C        5.9805488523   -1.6240643588    2.0322286914
H        2.2456081394   -0.1687755187   -0.9075941547
H       -0.0962424608   -0.5062694727   -0.1677084635
H        4.0824127129   -0.3385791577    0.6979650614
H       -0.5781560304   -1.0372193146    2.1863191944
H        3.6782183920   -0.7981931477    4.4273608920
H        5.8953299168   -0.6342042940    3.9680238061
H        1.7656753047   -2.2163726020    4.5618259874
H        1.3077810717   -0.5291800390    4.9221496136
H        0.0987499469   -1.6851485832    4.3229660380
H        6.8490386971   -2.1385065782    2.4543491200
H        5.3150906069   -2.3739355281    1.5929869177
H        6.3258090320   -0.9467861499    1.2456179684
22   

C        2.0525333427   -0.4320105693    0.1353099587
C        0.7376894755   -0.6098329584    0.5513544079
C        3.0930762823   -0.5080026018    1.0629764417
C        0.4678938263   -0.8594338844    1.8959331102
C        2.8468140678   -0.7478440385    2.4304152912
C        1.5004479156   -0.9241184899    2.8477922069
C        3.9458931223   -0.7887228665    3.4177773021
C        5.2640742623   -0.9128678013    3.1642209043
C        1.1541456270   -1.2821453372    4.2738983633
C        5.8994606687   -1.6321136966    2.0022226780
H        2.2687239522   -0.2242234935   -0.9063248000
H       -0.0729655028   -0.5566769101   -0.1664523326
H        4.0948864194   -0.3230024032    0.7033930334
H       -0.5602937460   -1.0150797710    2.2010705846
H        3.6847616061   -0.6765313975    4.4629591442
H        5.9154472519   -0.7765839647    4.0206654987
H        1.7863744011   -2.1064481778    4.6195771881
H        1.2971273489   -0.4175071922    4.9278758542
H        0.1137237565   -1.6118291104    4.3517043907
H        6.7620898466   -2.2078850863    2.3507109747
H        5.1919430879   -2.3279016539    1.5405234716
H        6.2465404737   -0.9132603985    1.2542404995
22   

C        2.0610034954   -0.4566377100    0.1383403711
C        0.7467322091   -0.6220301626    0.5592941602
C        3.1023477805   -0.5114115510    1.0664381969
C        0.4782626179   -0.8351789429    1.9099101208
C        2.8595696995   -0.7188581567    2.4407434345
C        1.5115355561   -0.8769485764    2.8624035323
C        3.9528406501   -0.7386497734    3.4356488000
C        5.2544893322   -0.9988925713    3.2117394484
C        1.1636298647   -1.2032076924    4.2958932873
C        5.8636128270   -1.6272916029    1.9867068803
H        2.2763779425   -0.2728906892   -0.9079800086
H       -0.0643599510   -0.5862857112   -0.1590969765
H        4.0994805125   -0.3257429346    0.6966481284
H       -0.5498883608   -0.9817672397    2.2195426533
H        3.6925236425   -0.5988853404    4.4777176116
H        5.9037689486   -0.9416694794    4.0786374357
H        1.7977376373   -2.0173615518    4.6617335891
H        1.3016349369   -0.3233819798    4.9302607243
H        0.1245660155   -1.5359332389    4.3789162845
H        6.7313940455   -2.2276776890    2.2757879492
H        5.1496895699   -2.2913138655    1.4898065394
H        6.2028584319   -0.8551480229    1.2899959949
22   

C        2.0561780176   -0.4810675039    0.1378392192
C        0.7425288504   -0.6233411858    0.5676706529
C        3.1011534504   -0.5247043214    1.0623757946
C        0.4783257683   -0.8007830264    1.9239016626
C        2.8641086041   -0.6975869135    2.4429809536
C        1.5152514638   -0.8298591219    2.8729673801
C        3.9580651193   -0.7077045078    3.4381311429
C        5.2327158947   -1.0947516037    3.2469790540
C        1.1685567935   -1.1243980470    4.3137606822
C        5.8574555298   -1.6106930191    1.9790487789
H        2.2685613113   -0.3230419694   -0.9132837860
H       -0.0712474243   -0.5971679381   -0.1480923400
H        4.0951767733   -0.3521082221    0.6798923455
H       -0.5497823412   -0.9308773020    2.2408893912
H        3.6981998862   -0.5519351725    4.4779804693
H        5.8638455189   -1.1156086393    4.1288078426
H        1.7969990518   -1.9362933798    4.6942389541
H        1.3145893310   -0.2332777264    4.9302033515
H        0.1274608372   -1.4482783050    4.4058540664
H        6.7443513000   -2.2027561298    2.2238669951
H        5.1649430508   -2.2617698828    1.4370420443
H        6.1735065647   -0.7793171148    1.3421505516
22   

C        2.0656442608   -0.4227312981    0.1420463292
C        0.7523879642   -0.4534301065    0.5962282439
C        3.0970674068   -0.8878087859    0.9597457036
C        0.4747674640   -0.9561831916    1.8658104892
C        2.8446591691   -1.4084809087    2.2465575105
C        1.4974192014   -1.4446866962    2.6977893044
C        3.9260596001   -1.9396228117    3.1032682177
C        5.2378426250   -1.6446831955    3.0370857067
C        1.1430390939   -1.8904202954    4.0971145762
C        5.8809450618   -0.4963587654    2.3060412440
H        2.2875098644   -0.0494637364   -0.8511215872
H       -0.0508094478   -0.0875605507   -0.0332535029
H        4.0921130868   -0.8901956156    0.5409722444
H       -0.5518052103   -0.9553320690    2.2130889049
H        3.6490845228   -2.5865856394    3.9266346828
H        5.8747122847   -2.1610941060    3.7470624517
H        1.2453056081   -2.9752547088    4.1878655176
H        1.7984128985   -1.4019964461    4.8256104981
H        0.1142151208   -1.6131103931    4.3458576233
H        6.2038368109   -0.8110364614    1.3093377763
H        5.1942840479    0.3519266201    2.2258479652
H        6.7637902973   -0.1592862988    2.8574414343
22   

C        2.0573972042   -0.4395129833    0.1300925311
C        0.7431890153   -0.4561937623    0.5840829554
C        3.0867341044   -0.8883486857    0.9595989846
C        0.4626764123   -0.9259004493    1.8661406743
C        2.8291081864   -1.3790193285    2.2561006250
C        1.4833321124   -1.3965903507    2.7105954154
C        3.9150337739   -1.8907034038    3.1183492119
C        5.2400121978   -1.6998802725    2.9590494615
C        1.1286549274   -1.8128764890    4.1187131347
C        5.9150569331   -0.5078940355    2.3307756808
H        2.2814298834   -0.0882133433   -0.8705646816
H       -0.0586134578   -0.1038859336   -0.0548426569
H        4.0870827518   -0.8960581881    0.5516915467
H       -0.5642047964   -0.9143382710    2.2123858249
H        3.6357580498   -2.5160433285    3.9574762278
H        5.8743524571   -2.2805116233    3.6199866664
H        1.2349586123   -2.8951909325    4.2328445580
H        1.7818327480   -1.3068491775    4.8370276976
H        0.0982312161   -1.5348536532    4.3598633167
H        6.2490937387   -0.7506043700    1.3177581124
H        5.2372538881    0.3507654934    2.2967801095
H        6.7909656717   -0.2247104708    2.9221116435
22   

C        2.0351059900   -0.4627764880    0.1071152757
C        0.7219282386   -0.4756585124    0.5664195137
C        3.0704844732   -0.8770829906    0.9472496808
C        0.4487289038   -0.9033493367    1.8652730384
C        2.8177360668   -1.3290617652    2.2572417952
C        1.4758663410   -1.3371121462    2.7214075289
C        3.9198344465   -1.7996901563    3.1208236859
C        5.2469771090   -1.7224261708    2.8729396210
C        1.1308363487   -1.7173421137    4.1419196779
C        5.9987333743   -0.5274471151    2.3412925180
H        2.2535070531   -0.1388392159   -0.9039543492
H       -0.0848924691   -0.1513623206   -0.0809639418
H        4.0758214371   -0.8794186287    0.5489799104
H       -0.5771895742   -0.8893910404    2.2143590320
H        3.6427614863   -2.3872724560    3.9873978092
H        5.8586067529   -2.3670723726    3.4948481410
H        1.2597032727   -2.7934214611    4.2883217012
H        1.7746901795   -1.1769884747    4.8433580284
H        0.0947441894   -1.4546931333    4.3757940403
H        6.3310225710   -0.7161284138    1.3162799690
H        5.3632092919    0.3636352756    2.3538061965
H        6.8784686086   -0.3324629102    2.9619040232
22   

C        1.9945145196   -0.4877641889    0.0786417133
C        0.6846604277   -0.4949625274    0.5495397407
C        3.0397056160   -0.8643335958    0.9245863666
C        0.4248515387   -0.8758682772    1.8661922819
C        2.7983672414   -1.2711830044    2.2498843775
C        1.4624354471   -1.2688369181    2.7292870862
C        3.9214517437   -1.6985684586    3.1090830210
C        5.2419759419   -1.7308743493    2.7963906330
C        1.1331190900   -1.6097830615    4.1633258312
C        6.1077973731   -0.5631689280    2.3833631955
H        2.2025112614   -0.1954032253   -0.9441699282
H       -0.1301606132   -0.2014308850   -0.1024827600
H        4.0478788506   -0.8639702940    0.5304586097
H       -0.5985172509   -0.8591343413    2.2226374043
H        3.6471517844   -2.2419518729    4.0047264912
H        5.8069572234   -2.4472067595    3.3830921730
H        1.2882412904   -2.6773282131    4.3437857092
H        1.7679690995   -1.0322927154    4.8429228653
H        0.0918391915   -1.3655843179    4.3939999362
H        6.4466443155   -0.6941435060    1.3515667013
H        5.5440389786    0.3723282412    2.4540077397
H        6.9838409368   -0.4929984769    3.0350919239
22   

C        1.9193372790   -0.5481271206    0.0369626435
C        0.6190875832   -0.5407659439    0.5349097184
C        2.9850819394   -0.8653207483    0.8816848198
C        0.3896010745   -0.8456958119    1.8771342167
C        2.7739010709   -1.1922928157    2.2327078900
C        1.4487839917   -1.1739597750    2.7410772504
C        3.9266234170   -1.5531267161    3.0810851179
C        5.2385905003   -1.6996196582    2.7315325726
C        1.1500722948   -1.4519197850    4.1953038214
C        6.2506737079   -0.6176219663    2.4240520013
H        2.1038632257   -0.3117413280   -1.0046579397
H       -0.2120702135   -0.2954655534   -0.1164169745
H        3.9891607196   -0.8729530991    0.4753142753
H       -0.6271828130   -0.8232243377    2.2516997367
H        3.6634741096   -2.0179230447    4.0228144402
H        5.7279933368   -2.4790872209    3.3057127434
H        1.3496777875   -2.5021091262    4.4276899165
H        1.7698272013   -0.8161539640    4.8354464773
H        0.1020898496   -1.2398851802    4.4272627578
H        6.6049584550   -0.7194214995    1.3941774511
H        5.7952553060    0.3704136931    2.5426660859
H        7.1066904606   -0.6928440078    3.1014131114
22   

C        1.8221827423   -0.6053095364   -0.0005518667
C        0.5371827586   -0.5837048231    0.5355849530
C        2.9153404229   -0.8719657647    0.8264456054
C        0.3504349326   -0.8230354808    1.8977732624
C        2.7473863716   -1.1288996072    2.1976765631
C        1.4381422925   -1.0965049707    2.7452794005
C        3.9329503842   -1.4362005917    3.0214303385
C        5.2415866369   -1.6451174488    2.6562640925
C        1.1835012625   -1.3198969754    4.2172041888
C        6.3814341860   -0.6558966561    2.5141390567
H        1.9736060510   -0.4187199917   -1.0575147129
H       -0.3154241571   -0.3793651660   -0.1020090299
H        3.9089390107   -0.8902593537    0.3946197999
H       -0.6554935116   -0.7947226879    2.3002242803
H        3.6973714984   -1.8223862809    4.0048028952
H        5.6490895506   -2.4991587090    3.1868502593
H        1.4265103755   -2.3513658419    4.4894107364
H        1.7946376711   -0.6353700318    4.8136649620
H        0.1337635083   -1.1373133513    4.4655740085
H        6.7840246715   -0.6944094928    1.4978406872
H        6.0250217379    0.3596574937    2.7115644227
H        7.1830936988   -0.8898258988    3.2212352105
