29   

C        3.0827047185   -2.8217956890    0.6819695356
C        2.4556832293   -1.6310183038    0.3063197646
C        2.8673831593   -3.3459162787    1.9592508021
C        1.6121750473   -0.9684497966    1.2051907429
C        2.0308496914   -2.6772647189    2.8600247576
C       -0.1577454956   -4.4163158941    5.7023313907
C       -0.0377629267   -5.6847753864    5.1287149509
C       -1.3789151969   -3.6781669375    3.7571547557
C        1.3909331718   -1.4815425091    2.4939293585
C       -0.8177603746   -3.3955087844    5.0108847551
C       -0.5735512320   -5.9593797471    3.8638640113
C       -1.2571975314   -4.9434943929    3.1715084855
C        0.5091501165   -0.7873169015    3.4275816395
C        0.3878060838   -0.8933446838    4.8032310948
O       -2.2147205630   -1.0958469570    5.3467310053
O       -0.6358619068   -1.7070658808    7.1429247292
S       -0.9261336337   -1.7117408648    5.7003690675
Cl      -0.3814029549   -7.5553167466    3.1717059562
Cl      -1.9480780027   -5.2292139409    1.5886827305
H        3.7341603501   -3.3369854201   -0.0152438699
H        2.6234256367   -1.2193700827   -0.6826570204
H        3.3487102270   -4.2719114740    2.2528804941
H        1.1350904769   -0.0447506378    0.8964627938
H        1.8740156742   -3.0979717480    3.8466497637
H        0.2668475334   -4.2216926813    6.6844559161
H        0.4794986638   -6.4709219915    5.6661322531
H       -1.9104914596   -2.9003092711    3.2159657340
H       -0.1567237081   -0.0574495996    2.9776258421
H        1.1756145033   -0.5074161439    5.4304765591
29   

C        2.8590988114   -3.1018711674    0.8812191424
C        2.1717216248   -1.9876134143    0.3940685197
C        2.8006767859   -3.4115595192    2.2421173530
C        1.4214275262   -1.1898079148    1.2652013051
C        2.0565931076   -2.6081294776    3.1130894889
C       -0.0688329180   -4.3959113141    5.5513999869
C        0.1165864033   -5.6109789387    4.8865659125
C       -1.2398889417   -3.5466503278    3.6210022897
C        1.3501342919   -1.4909951026    2.6357523453
C       -0.7338048293   -3.3440528127    4.9132751502
C       -0.3570748564   -5.8005200152    3.5818457714
C       -1.0493385511   -4.7559334565    2.9432813693
C        0.5415697750   -0.6668667387    3.5329816962
C        0.3628656861   -0.7591282830    4.8918645275
O       -2.2272562774   -1.1359437018    5.4094052220
O       -0.6265092675   -1.8002068369    7.1584496271
S       -0.9112073709   -1.7173103522    5.7170195953
Cl      -0.0762984553   -7.3270233449    2.7733967128
Cl      -1.6611623311   -4.9340065190    1.3129148593
H        3.4361486272   -3.7235046324    0.2055816655
H        2.2177126829   -1.7422156313   -0.6610801748
H        3.3314657023   -4.2762487056    2.6239589189
H        0.8911583095   -0.3322843968    0.8658583244
H        2.0251474660   -2.8634920057    4.1657686682
H        0.3117837852   -4.2653245510    6.5616812338
H        0.6393451181   -6.4205058370    5.3821263892
H       -1.7747158099   -2.7452627023    3.1191707208
H        0.0258680512    0.1667529688    3.0667193537
H        0.9931107730   -0.1870325900    5.5544734535
29   

C        2.7120404875   -3.3434086385    1.1798142568
C        1.8927408179   -2.3836128609    0.5806415964
C        2.8500372488   -3.3665636100    2.5695483048
C        1.2056801021   -1.4550858626    1.3707141583
C        2.1641009375   -2.4362481572    3.3579078397
C        0.0649017767   -4.3430085889    5.2749192217
C        0.2755024656   -5.4850235298    4.4977039726
C       -1.2184141967   -3.3827356273    3.4726389438
C        1.3233561206   -1.4752888117    2.7703028578
C       -0.6666432905   -3.2694205357    4.7570599717
C       -0.2374108288   -5.5786697955    3.1975290394
C       -1.0001211552   -4.5158450517    2.6811918651
C        0.5569883417   -0.5315974344    3.5915111066
C        0.3097579057   -0.6052979790    4.9287815607
O       -2.2253325106   -1.1870356527    5.5220837855
O       -0.5132979443   -1.9181661404    7.1198084492
S       -0.8679583327   -1.7244330323    5.7045950168
Cl       0.0841297141   -7.0092545664    2.2423628607
Cl      -1.6615976637   -4.5743658302    1.0616108418
H        3.2391387926   -4.0672955949    0.5682602077
H        1.7850109955   -2.3621078587   -0.4980375356
H        3.4863511646   -4.1084669019    3.0382932611
H        0.5665454584   -0.7245901653    0.8872348014
H        2.2813261674   -2.4698070538    4.4351246532
H        0.4803335816   -4.2839113902    6.2779721250
H        0.8518459214   -6.3097930623    4.8994532262
H       -1.8061063740   -2.5654810155    3.0648736736
H        0.1763109200    0.3500585131    3.0856385044
H        0.7146127703    0.1417876918    5.5935893297
29   

C        2.6383026968   -3.4113005118    1.2928373756
C        1.8111988460   -2.4788449653    0.6619200355
C        2.8051122099   -3.3638862578    2.6789175713
C        1.1445482123   -1.5075677096    1.4172636054
C        2.1382320752   -2.3917164869    3.4325755194
C        0.0749108685   -4.3635868875    5.1655003299
C        0.2886595368   -5.4891636779    4.3660522677
C       -1.2221364792   -3.3755115634    3.3883745489
C        1.2882190430   -1.4597054698    2.8135285382
C       -0.6651247316   -3.2838767556    4.6721013968
C       -0.2293514860   -5.5605712449    3.0667667763
C       -1.0002522846   -4.4921683763    2.5742254570
C        0.5491190935   -0.4630326373    3.6015159598
C        0.1777163589   -0.5370859577    4.9009296734
O       -2.2813187537   -1.3051948782    5.5729209817
O       -0.4672473900   -1.9894262184    7.0582289201
S       -0.8888016516   -1.7705383933    5.6650201126
Cl       0.0950871521   -6.9714584934    2.0837336223
Cl      -1.6694878990   -4.5246735533    0.9571743373
H        3.1496870817   -4.1681442082    0.7084502059
H        1.6819204506   -2.5115426021   -0.4141111166
H        3.4489278405   -4.0832934163    3.1718091963
H        0.4999652918   -0.7976130131    0.9109407810
H        2.2775259061   -2.3676963697    4.5076474435
H        0.4922180297   -4.3230441888    6.1687115401
H        0.8703881133   -6.3184253279    4.7503803775
H       -1.8184230885   -2.5550908503    3.0003642415
H        0.3117639509    0.4650491750    3.0911473525
H        0.3754618512    0.3024267365    5.5494976245
29   

C        3.1676538315   -3.5334463596    1.9163639339
C        2.1351555118   -3.0602538557    1.1019234063
C        3.3175253172   -3.0282928867    3.2105815749
C        1.2538757962   -2.0843682769    1.5812675865
C        2.4326555456   -2.0566442303    3.6904312578
C        0.1842478493   -4.2671268102    4.4960817439
C        0.0636553086   -5.2718876268    3.5353409411
C       -1.7897349806   -3.2031774500    3.6097785229
C        1.3863902772   -1.5765131221    2.8832335265
C       -0.7305686000   -3.2087662334    4.5275259884
C       -0.9714971530   -5.2471559289    2.5941900271
C       -1.9149876903   -4.2036156919    2.6368353232
C        0.4412454624   -0.5694488990    3.3935683275
C        0.0186328725   -0.4506164304    4.6670491825
O       -1.7868684031   -1.4782321830    6.3419825907
O        0.5429036862   -2.1440266646    6.6846080160
S       -0.5093428163   -1.8299401467    5.7032337407
Cl      -1.0656419761   -6.5071848420    1.3833768165
Cl      -3.2294612201   -4.1239117754    1.4840690595
H        3.8518793566   -4.2879159423    1.5442468032
H        2.0152428806   -3.4509876209    0.0976483387
H        4.1200622100   -3.3872741971    3.8452951266
H        0.4535651486   -1.7334668974    0.9392787644
H        2.5618390136   -1.6742815459    4.6983370286
H        1.0067272960   -4.2957361765    5.2064246710
H        0.7894513249   -6.0757957004    3.5080175390
H       -2.5197409545   -2.3994764409    3.6348166969
H        0.0786712038    0.1633539987    2.6798959481
H       -0.2215992445    0.5206641237    5.0713861882
29   

C        3.1551147519   -3.5512157372    1.9809249774
C        2.1284477523   -3.0785940457    1.1586903060
C        3.3188397199   -3.0182596292    3.2623954535
C        1.2672682116   -2.0753325682    1.6175700881
C        2.4533935568   -2.0195550316    3.7218808085
C        0.1933131338   -4.2720059657    4.4212811907
C        0.0500177248   -5.2761064371    3.4631453280
C       -1.7967685807   -3.2031856522    3.5784971991
C        1.4135482124   -1.5401628956    2.9068730432
C       -0.7192077992   -3.2124673782    4.4743682587
C       -1.0055611414   -5.2492259341    2.5451853774
C       -1.9451865287   -4.2031675658    2.6081443333
C        0.4914195913   -0.4965766593    3.3940130478
C       -0.0667401049   -0.4280106557    4.6129763685
O       -1.7228729824   -1.5482876501    6.3760141441
O        0.6447349816   -2.1316468661    6.5668173580
S       -0.4748764917   -1.8412608197    5.6546260127
Cl      -1.1298673654   -6.5100412025    1.3378925930
Cl      -3.2846544682   -4.1209170749    1.4846959087
H        3.8242436085   -4.3265499755    1.6246069127
H        1.9975733593   -3.4905528866    0.1643181148
H        4.1169773040   -3.3762707551    3.9032000541
H        0.4714801562   -1.7235871094    0.9704193387
H        2.5929254106   -1.6145925065    4.7195913935
H        1.0308164430   -4.3028993668    5.1137485258
H        0.7733846372   -6.0815212780    3.4203956492
H       -2.5245535888   -2.3982614635    3.6195192897
H        0.2407906766    0.2911439301    2.6908092452
H       -0.4495018512    0.5116031645    4.9809131548
29   

C        3.1275711783   -3.5690429300    2.0181368995
C        2.1015640910   -3.0810689811    1.2039881697
C        3.3176017357   -3.0296316054    3.2934491068
C        1.2679344298   -2.0557001683    1.6646972562
C        2.4790385119   -2.0088938688    3.7547794539
C        0.2037207391   -4.2808644152    4.4061165905
C        0.0622453575   -5.2909266796    3.4539563803
C       -1.7950319103   -3.2273240690    3.5650700817
C        1.4412729649   -1.5138681593    2.9476182170
C       -0.7149047940   -3.2266636806    4.4578236730
C       -0.9970602623   -5.2748651492    2.5400531135
C       -1.9417380725   -4.2332600310    2.6006252246
C        0.5488647022   -0.4412576017    3.4356859218
C       -0.1477296657   -0.4286973687    4.5801756972
O       -1.7123648907   -1.5977880892    6.3909869463
O        0.6770385993   -2.1087511981    6.5122641899
S       -0.4769931785   -1.8506471920    5.6335721607
Cl      -1.1197418306   -6.5434317307    1.3407292308
Cl      -3.2859628653   -4.1642956871    1.4819327375
H        3.7756173931   -4.3613879472    1.6603092206
H        1.9498039721   -3.4979482328    0.2146463681
H        4.1151033697   -3.3998024052    3.9280842289
H        0.4723802128   -1.6907379735    1.0245909126
H        2.6371872350   -1.5986959013    4.7475687354
H        1.0439165374   -4.3033954372    5.0955997105
H        0.7897270075   -6.0926887238    3.4129607516
H       -2.5268571035   -2.4260475868    3.6041050952
H        0.4154274078    0.4061010212    2.7708480167
H       -0.6436485050    0.4749324019    4.9000978868
29   

C        1.9929508186   -3.0252091284    0.8731625553
C        1.0931122766   -1.9558507655    0.8726495043
C        2.7099197460   -3.3288100933    2.0337723441
C        0.9060541054   -1.1967872995    2.0332349972
C        2.5258530517   -2.5647947648    3.1917436653
C       -0.2611896337   -3.9911352936    5.4253912648
C        0.1592849332   -5.2871381535    5.1152568856
C       -0.9294685815   -3.6838786959    3.1295107154
C        1.6157291648   -1.4970033359    3.2072990660
C       -0.7924957374   -3.1691194779    4.4270581293
C        0.0484654001   -5.7902070089    3.8127790103
C       -0.5110394301   -4.9802657969    2.8086199279
C        1.4060280251   -0.7056417971    4.4417799888
C        0.2770703249   -0.6177839738    5.1553639018
O       -1.9174152194   -0.8275146164    3.6143771499
O       -2.1290477994   -1.3929742293    5.9856428505
S       -1.2765517802   -1.4461422823    4.7877277856
Cl       0.6084520907   -7.4105947217    3.4612420397
Cl      -0.6806517139   -5.5581495822    1.1647371102
H        2.1322388054   -3.6191961858   -0.0233481487
H        0.5353254210   -1.7155437651   -0.0256324628
H        3.4058177950   -4.1601392797    2.0374921062
H        0.2000935838   -0.3719109310    2.0222335631
H        3.0830337549   -2.8146181627    4.0875859434
H       -0.1653957436   -3.6185465739    6.4415547953
H        0.5815601581   -5.9155640641    5.8902905052
H       -1.3527820217   -3.0623523381    2.3454101919
H        2.2841223739   -0.2118284320    4.8453292874
H        0.2489754496   -0.0137713790    6.0492744181
29   

C        2.0058658317   -3.0173965571    0.8419778732
C        1.0975151672   -1.9562499921    0.8807614430
C        2.7354155498   -3.3488433410    1.9869297762
C        0.9136160207   -1.2341064655    2.0649816190
C        2.5541813655   -2.6220810621    3.1691649500
C       -0.2803908760   -3.9695837589    5.4410527381
C        0.1474844584   -5.2670952583    5.1477144918
C       -0.9390237136   -3.6917468035    3.1385427265
C        1.6336162947   -1.5642902764    3.2254498053
C       -0.8098097053   -3.1612052282    4.4306061021
C        0.0462056379   -5.7851265574    3.8503004695
C       -0.5121533218   -4.9893107023    2.8342871070
C        1.4256990953   -0.8172853644    4.4828525855
C        0.2570139186   -0.5880982184    5.0975551352
O       -1.9577073314   -0.8389872804    3.5931112056
O       -2.1332705509   -1.3617554709    5.9757350226
S       -1.2969987932   -1.4340557103    4.7674585603
Cl       0.6168240284   -7.4061873719    3.5195958153
Cl      -0.6689019839   -5.5856108396    1.1957583128
H        2.1428647747   -3.5826641519   -0.0732559737
H        0.5310478150   -1.6930084578   -0.0056076935
H        3.4390851565   -4.1731648998    1.9595098816
H        0.2028340206   -0.4135331020    2.0812730016
H        3.1216200352   -2.8949250872    4.0517315296
H       -0.1910925772   -3.5847994154    6.4532926696
H        0.5687480177   -5.8848146547    5.9318559207
H       -1.3611717224   -3.0812376134    2.3451807351
H        2.3212956343   -0.4531579836    4.9758570905
H        0.2095916336    0.1021318084    5.9258512981
29   

C        2.0454125429   -3.0038595055    0.8246833046
C        1.1179182741   -1.9606040986    0.8843989722
C        2.7789544909   -3.3465134626    1.9637080391
C        0.9186694182   -1.2678604063    2.0834583233
C        2.5821186855   -2.6495404405    3.1613486642
C       -0.2970606558   -3.9445753421    5.4543965158
C        0.1417115140   -5.2390969695    5.1638134022
C       -0.9605259245   -3.6784289397    3.1517663071
C        1.6419007246   -1.6102842881    3.2391436890
C       -0.8334334277   -3.1430316852    4.4421140765
C        0.0447858056   -5.7607909480    3.8674859430
C       -0.5216168587   -4.9724877154    2.8500811777
C        1.4140846867   -0.9000541771    4.5103590949
C        0.2256777130   -0.5425296280    5.0241797964
O       -2.0413553779   -0.8477056101    3.6165108281
O       -2.1177147881   -1.3336654184    6.0120098790
S       -1.3288064744   -1.4169174453    4.7729807657
Cl       0.6309749744   -7.3768872080    3.5397650104
Cl      -0.6725239870   -5.5731223581    1.2126216955
H        2.1945125825   -3.5462223073   -0.1024377802
H        0.5486805324   -1.6883594718    0.0025238281
H        3.4979783615   -4.1567428514    1.9195905411
H        0.1930829688   -0.4607696635    2.1143082044
H        3.1530144599   -2.9324689907    4.0384700170
H       -0.2103357406   -3.5563282283    6.4656017067
H        0.5687790132   -5.8513859874    5.9490732080
H       -1.3888490214   -3.0737974745    2.3571824359
H        2.2985530185   -0.6430929738    5.0842759549
H        0.1707707356    0.2408622181    5.7644282800
29   

C        2.1004504984   -3.0168033060    0.8191622959
C        1.1511830398   -1.9935986390    0.8806738597
C        2.8271224461   -3.3591100167    1.9626328416
C        0.9235404470   -1.3204709713    2.0857398039
C        2.6015332967   -2.6822644375    3.1667797194
C       -0.3173977859   -3.9387861384    5.4486816922
C        0.1291770574   -5.2253706721    5.1359277776
C       -1.0182705971   -3.6513025340    3.1595555498
C        1.6397857365   -1.6628277964    3.2464335943
C       -0.8752063315   -3.1298667783    4.4538762111
C        0.0191232193   -5.7316874953    3.8345645155
C       -0.5704311891   -4.9368843032    2.8354468730
C        1.3773105948   -0.9788394459    4.5233383938
C        0.1853130969   -0.5072739618    4.9364785143
O       -2.1748747335   -0.8581579211    3.7068374536
O       -2.0681481921   -1.3279571969    6.1051945271
S       -1.3724491886   -1.4097516955    4.8113919302
Cl       0.6184257828   -7.3367790773    3.4778733649
Cl      -0.7375960496   -5.5181496880    1.1926418539
H        2.2717688387   -3.5438063057   -0.1129598764
H        0.5871826698   -1.7220654542   -0.0047668608
H        3.5632140186   -4.1537651215    1.9167859152
H        0.1804150595   -0.5295797733    2.1172297709
H        3.1674347245   -2.9661864905    4.0467809879
H       -0.2192907120   -3.5615969542    6.4631347294
H        0.5735439029   -5.8429826099    5.9073053815
H       -1.4643021535   -3.0412658355    2.3789613516
H        2.2311490197   -0.8112291767    5.1718000308
H        0.1350023351    0.3730636887    5.5585769794
29   

C        2.2159812181   -3.0960849737    0.8618808777
C        1.2201581009   -2.1165912736    0.8824422138
C        2.9349288214   -3.3793414916    2.0261207054
C        0.9388638353   -1.4281609924    2.0673540542
C        2.6543699188   -2.6882097878    3.2104846445
C       -0.2940518083   -3.9445763002    5.4073770200
C        0.1525196852   -5.2094914011    5.0174058082
C       -1.1472658025   -3.5834656570    3.1810153685
C        1.6462131362   -1.7119363057    3.2490636939
C       -0.9270381227   -3.1086891422    4.4819915971
C       -0.0313520045   -5.6672631157    3.7066293490
C       -0.6984084550   -4.8469222616    2.7790885565
C        1.3243839411   -1.0170007913    4.5043598840
C        0.1282838398   -0.4729685229    4.8271813230
O       -2.3860002514   -0.8648610231    3.9773404916
O       -1.8971348219   -1.3594618239    6.3247346138
S       -1.4112127850   -1.4088173065    4.9367836589
Cl       0.5745723437   -7.2440776781    3.2493419084
Cl      -0.9582673112   -5.3679252064    1.1282698350
H        2.4296044150   -3.6344754176   -0.0548626909
H        0.6620459868   -1.8915564662   -0.0195534853
H        3.7080912410   -4.1392136042    2.0116357065
H        0.1606630825   -0.6716162563    2.0670761072
H        3.2155901089   -2.9270308397    4.1067090572
H       -0.1357896562   -3.6033016073    6.4271009742
H        0.6562895897   -5.8467536713    5.7343823131
H       -1.6530876199   -2.9524141355    2.4556237494
H        2.1360061454   -0.8841814125    5.2123516589
H        0.0776261833    0.5152006899    5.2575642336
29   

C        2.6769526419   -3.3423009666    1.2095419050
C        1.4367115543   -2.7072674785    1.1136486674
C        3.4648397591   -3.1557068373    2.3481325941
C        0.9840390460   -1.8921566112    2.1566481368
C        3.0073340584   -2.3449834946    3.3934407222
C       -0.1473042157   -3.9494777847    4.9855039469
C        0.1562916297   -5.1446147368    4.3320082580
C       -1.7287873921   -3.4167047012    3.2438807942
C        1.7560300269   -1.7111318615    3.3170730880
C       -1.0746681929   -3.0604208936    4.4313783875
C       -0.4659186893   -5.4830374223    3.1249736282
C       -1.4286439796   -4.6132602058    2.5794628066
C        1.2673555624   -0.8976570741    4.4350585254
C        0.0007845896   -0.4420834512    4.6481393599
O       -2.6472965905   -0.8558690854    4.7481416214
O       -1.3129641434   -1.5648045051    6.6815700676
S       -1.3825302856   -1.4441575034    5.2166551981
Cl      -0.0303271439   -6.9743875536    2.3196064240
Cl      -2.2405228304   -4.9904794548    1.0758168493
H        3.0269972388   -3.9755218192    0.4017956173
H        0.8223651501   -2.8475461979    0.2312637293
H        4.4307159693   -3.6426599814    2.4223910596
H        0.0209573539   -1.4034770092    2.0621978323
H        3.6298275167   -2.2185166175    4.2722162018
H        0.3543562445   -3.6998257081    5.9168003822
H        0.8921667035   -5.8169374608    4.7567559732
H       -2.4689999004   -2.7470168473    2.8145683725
H        2.0120115779   -0.5756482001    5.1559932464
H       -0.2001924341    0.6177690286    4.6288987301
29   

C        3.0106099588   -3.2112025153    1.1642686073
C        1.6684284790   -2.8281284848    1.1084068757
C        3.7865684597   -2.8578720560    2.2710477520
C        1.1046980113   -2.0933534095    2.1570351241
C        3.2185882725   -2.1300532146    3.3230280750
C       -0.2837917361   -3.9985079603    4.9701363264
C       -0.1003240306   -5.2144148013    4.3105049793
C       -1.9591200816   -3.3868320848    3.3459313746
C        1.8688635228   -1.7415967136    3.2828036226
C       -1.2007499128   -3.0626485984    4.4792519731
C       -0.8324446080   -5.5261971631    3.1592914561
C       -1.7799080933   -4.6043588331    2.6756109622
C        1.2769913305   -1.0028857039    4.3975854594
C       -0.0020855130   -0.5246148487    4.5430945662
O       -2.6424675537   -0.7913246374    4.9279901767
O       -1.1428570365   -1.5483857817    6.7284071208
S       -1.3654795570   -1.4326158144    5.2783610517
Cl      -0.5520607812   -7.0505773597    2.3465869787
Cl      -2.7258151828   -4.9465760826    1.2435775743
H        3.4485163967   -3.7786969464    0.3505344508
H        1.0618545038   -3.0998953610    0.2516984288
H        4.8300765019   -3.1491087207    2.3150472164
H        0.0634004791   -1.8006215167    2.0918683499
H        3.8368558100   -1.8688780143    4.1747702157
H        0.2999710080   -3.7726739213    5.8589016846
H        0.6248557663   -5.9257146740    4.6879875276
H       -2.6910839683   -2.6788613918    2.9663926601
H        1.9466466886   -0.7687143096    5.2190445758
H       -0.2404901669    0.4817959718    4.2367364290
29   

C        3.4365491786   -2.9928041950    1.0959568905
C        2.0396925143   -2.9561447743    1.1021391649
C        4.1498832865   -2.4219835592    2.1532309247
C        1.3587971944   -2.3449573036    2.1608879300
C        3.4670164356   -1.8190301866    3.2157463889
C       -0.4924766777   -4.1049134400    4.9853553466
C       -0.4781476138   -5.3502584091    4.3554561741
C       -2.1911694430   -3.3611434222    3.4421963745
C        2.0632571542   -1.7704198418    3.2319095748
C       -1.3390588647   -3.0920180887    4.5221493462
C       -1.3103747479   -5.6133118078    3.2612301729
C       -2.1821879467   -4.6078716991    2.8023946550
C        1.3546585436   -1.1353721192    4.3402092845
C        0.0527815110   -0.6746322947    4.4313703258
O       -2.5565965501   -0.7083198735    5.0328797388
O       -0.9771581843   -1.5576863221    6.7277627149
S       -1.3104751745   -1.4436780373    5.2988724073
Cl      -1.2485600845   -7.1827872057    2.4891522454
Cl      -3.2480210759   -4.8858736197    1.4422977714
H        3.9649960573   -3.4610330564    0.2728635386
H        1.4818954777   -3.4003095755    0.2852615429
H        5.2339426555   -2.4440338534    2.1491847334
H        0.2751174520   -2.3242771334    2.1487175215
H        4.0373179212   -1.3780934974    4.0259730775
H        0.1622246301   -3.9208015638    5.8336410684
H        0.1884854892   -6.1256846359    4.7145735957
H       -2.8694322446   -2.5905760745    3.0850978145
H        1.9435361506   -0.9851048140    5.2396600402
H       -0.2252323958    0.2107959301    3.8818944435
