21   

C        0.9864207980   -5.3994528528   -1.6626502746
C        0.6617335544   -4.1891035151   -0.9517964070
C        1.7445804369   -5.0190291501   -2.7332687956
C        1.2475867850   -3.1610821226   -1.6450271024
C       -0.6435997280   -0.6642241551    1.3218787692
C        0.5962538784   -1.1149995879   -0.3966658245
C        0.3720731225    0.3576408570   -0.3744605362
C        1.2538846687   -1.7559778712   -1.4015432342
C       -1.0315593091    1.8329291334    1.0960915319
N       -0.0837787257   -1.6691664363    0.6828060618
N       -0.3754686536    0.5846346248    0.7508653412
O        0.7397229174    1.2034114778   -1.1801557898
O        1.9149391984   -3.6578200950   -2.7397850863
H        0.6926097419   -6.4105977747   -1.4063176227
H        0.0712075923   -4.1063912257   -0.0470854323
H        2.1556622422   -5.6933810764   -3.4756870963
H       -1.2574605982   -0.7981641309    2.2059403109
H        1.7613741210   -1.1435077964   -2.1372524888
H       -0.6382049605    2.2145143573    2.0435404846
H       -2.1123143327    1.6844617492    1.1845548166
H       -0.8540566488    2.5866440161    0.3217640354
21   

C        0.8548070070   -5.3668111783   -1.6848601372
C        0.6466730843   -4.1630906059   -0.9208987387
C        1.6250036735   -5.0089282367   -2.7548228484
C        1.3064519106   -3.1616079288   -1.5854559118
C       -0.4753761564   -0.6619003789    1.4184293797
C        0.8021873572   -1.1112425212   -0.2722271065
C        0.4293068800    0.3303956923   -0.3545583956
C        1.4309071601   -1.7736747619   -1.2847011590
C       -1.1383558686    1.7477506159    0.9976790590
N        0.1764053301   -1.6514408032    0.8459335162
N       -0.3285605396    0.5656441384    0.7624439254
O        0.6899183609    1.1414371866   -1.2342955150
O        1.9110909141   -3.6679441114   -2.7116546602
H        0.4798776646   -6.3590229427   -1.4626141976
H        0.0811303222   -4.0660351588   -0.0017115074
H        1.9644042799   -5.6849137919   -3.5312146181
H       -1.0756574242   -0.7933803864    2.3121381125
H        1.9391655394   -1.1744727733   -2.0306652890
H       -0.8001388210    2.2600415522    1.9038148292
H       -2.1922800465    1.4736099200    1.1073951081
H       -1.0543409337    2.4446102872    0.1571368552
21   

C        0.7107113276   -5.2828783019   -1.6965362004
C        0.6168302233   -4.0947131969   -0.8868008364
C        1.5098931566   -4.9581824177   -2.7560384621
C        1.3663218904   -3.1354582557   -1.5167937143
C       -0.3197688917   -0.6481634386    1.5082757054
C        1.0058002891   -1.0853992945   -0.1486029560
C        0.4940349058    0.3063717656   -0.3267242887
C        1.6121981255   -1.7785435713   -1.1590769205
C       -1.2241614740    1.6419558621    0.9172916258
N        0.4224577733   -1.6086131003    0.9998594916
N       -0.2837650396    0.5443511050    0.7760852388
O        0.6642070056    1.0704843818   -1.2684102884
O        1.9205737357   -3.6525204041   -2.6636300942
H        0.2449953177   -6.2435584995   -1.5103708836
H        0.0651518172   -3.9782057944    0.0386101176
H        1.7833671750   -5.6327441661   -3.5592355559
H       -0.9122159363   -0.7784136081    2.4073803862
H        2.1411230577   -1.1987774539   -1.9058938243
H       -0.9526708987    2.2599224432    1.7788346818
H       -2.2411193243    1.2599230404    1.0508180138
H       -1.2140522706    2.2746663011    0.0235461015
21   

C        0.5139653213   -5.1776320725   -1.6689677142
C        0.5027608930   -3.9966422519   -0.8433151928
C        1.3612757668   -4.9076937915   -2.7065901317
C        1.3441150094   -3.0970365077   -1.4433762583
C       -0.3113475667   -0.5945106999    1.5358921109
C        1.0756868698   -1.0277041158   -0.0717171257
C        0.4170229356    0.2822662609   -0.3704041882
C        1.6839460228   -1.7716044945   -1.0516367383
C       -1.4563524786    1.5171330351    0.7406957043
N        0.5297864318   -1.5131083720    1.1109032778
N       -0.3884952275    0.5331102007    0.7095208072
O        0.5022714680    0.9689260044   -1.3807097629
O        1.8795673916   -3.6433010727   -2.5852676507
H       -0.0353880109   -6.0978059626   -1.5078573121
H       -0.0558182329   -3.8435126922    0.0726779021
H        1.5938704142   -5.5917435334   -3.5146320689
H       -0.9000306994   -0.7126511180    2.4391391693
H        2.2516206458   -1.2256463476   -1.7952295353
H       -1.2123371024    2.3118653664    1.4525307158
H       -2.4014113471    1.0485002841    1.0327033326
H       -1.5942320176    1.9674593052   -0.2479778373
21   

C        0.3675900317   -5.0436141331   -1.6802176861
C        0.4451898012   -3.8820585277   -0.8306655967
C        1.2728933280   -4.8413576082   -2.6841968173
C        1.3912458149   -3.0616969828   -1.3850152902
C       -0.1874325685   -0.5598032720    1.5868296988
C        1.2376625466   -0.9847000124    0.0090996324
C        0.4558159913    0.2319351040   -0.3854946546
C        1.8321126564   -1.7846952275   -0.9451805925
C       -1.5214057895    1.3715798861    0.6435187070
N        0.7323081336   -1.4289097096    1.2253350972
N       -0.3665104987    0.4914136140    0.6796052711
O        0.4662264849    0.8358314686   -1.4506521660
O        1.9107580417   -3.6380298886   -2.5190324081
H       -0.2758504437   -5.9069385623   -1.5572113806
H       -0.1245001814   -3.6870331170    0.0705039305
H        1.4632529084   -5.5301783393   -3.4992125269
H       -0.7639318213   -0.6634719013    2.4996661666
H        2.4630339407   -1.2813663925   -1.6671874223
H       -1.3529217637    2.2366788054    1.2924120607
H       -2.4190904932    0.8406169054    0.9755422698
H       -1.6997878128    1.7319216022   -0.3751164889
21   

C        0.2149963776   -4.8803479160   -1.7077098985
C        0.3639675230   -3.7385154809   -0.8409246443
C        1.1962293074   -4.7704135913   -2.6534831390
C        1.4236587846   -3.0222743123   -1.3284251283
C       -0.0742411284   -0.5086045339    1.6365993554
C        1.3705463739   -0.9368443984    0.0757612392
C        0.4795648465    0.1738478845   -0.4017708267
C        1.9564145187   -1.8024124756   -0.8388931430
C       -1.5780746993    1.2202423302    0.5656996374
N        0.9113442328   -1.3245715959    1.3288664411
N       -0.3502646980    0.4489826929    0.6534626239
O        0.4190265207    0.6816916317   -1.5142529523
O        1.9490895299   -3.6445471514   -2.4346273440
H       -0.5232858145   -5.6703611946   -1.6349156339
H       -0.2332159207   -3.4866430142    0.0277613886
H        1.3601362397   -5.4699551570   -3.4651024085
H       -0.6318455319   -0.5882038710    2.5634885119
H        2.6865863130   -1.3640903187   -1.5071388295
H       -1.4818872721    2.1438777301    1.1449043198
H       -2.4238607208    0.6404525297    0.9483944253
H       -1.7937265769    1.4849679268   -0.4748421586
21   

C        1.4873632237   -4.8673099404   -0.8794803736
C        0.6135237115   -3.7309620793   -0.7297553823
C        2.0520846352   -4.7520022197   -2.1193059060
C        0.7162964637   -3.0122420054   -1.8901488739
C       -1.5954364187   -0.5202572406    0.5141688686
C       -0.6030344879   -0.9354071219   -1.3703107843
C        0.1360089879    0.1789943531   -0.6868959029
C        0.0701854652   -1.7958744620   -2.2280776442
C       -0.0997785809    1.2203080327    1.5781771357
N       -1.6288233834   -1.3325953296   -0.5206481229
N       -0.5822998646    0.4433566426    0.4497192808
O        1.2007295156    0.6958875208   -1.0005398749
O        1.5884139159   -3.6279046044   -2.7546586017
H        1.6691179341   -5.6573969763   -0.1603087401
H       -0.0084627039   -3.4842457985    0.1228471657
H        2.7671213280   -5.4465715465   -2.5450366437
H       -2.2829048340   -0.6067703937    1.3486037097
H        0.4547290955   -1.3540158509   -3.1384155134
H       -0.0721812410    0.6055508404    2.4833031219
H       -0.7523572765    2.0828099665    1.7455764462
H        0.9139367282    1.5882056828    1.3876577368
21   

C        1.4114954547   -5.0280905913   -1.0095702279
C        0.5755096919   -3.8727232987   -0.8016888596
C        2.0586447469   -4.8205256036   -2.1955453447
C        0.7801961687   -3.0503278531   -1.8773973169
C       -1.5135646670   -0.5691323925    0.5994935707
C       -0.4997111440   -0.9820044112   -1.2722678490
C        0.1227949196    0.2391478024   -0.6657930227
C        0.2101529669   -1.7775071887   -2.1482907439
C       -0.1934610199    1.3699530937    1.5460782697
N       -1.4743198664   -1.4350643452   -0.3907074156
N       -0.6056751357    0.4882736858    0.4679105200
O        1.1180474739    0.8516449841   -1.0314400474
O        1.6831939463   -3.6197081038   -2.7425438408
H        1.5141714315   -5.8910230408   -0.3620516833
H       -0.0884254594   -3.6831391199    0.0337207990
H        2.7701196642   -5.5039200674   -2.6446943430
H       -2.1805052891   -0.6795597267    1.4476448412
H        0.6789316591   -1.2711325090   -2.9828777086
H       -0.0874690708    0.8094922445    2.4802301724
H       -0.9322847878    2.1657360185    1.6826463249
H        0.7722381666    1.8329736228    1.3174354215
21   

C        1.3523547703   -5.1654355857   -1.1477052274
C        0.5697664241   -3.9895875623   -0.8621951054
C        2.0491213908   -4.8897668748   -2.2904827243
C        0.8517395550   -3.0869288566   -1.8536782967
C       -1.4210479152   -0.6044932320    0.7010802970
C       -0.3656152898   -1.0257486745   -1.1444385405
C        0.1265429533    0.2864747633   -0.6203466616
C        0.3619542210   -1.7641407228   -2.0437778789
C       -0.3062437382    1.5146842527    1.5194493292
N       -1.2958859360   -1.5191573484   -0.2368146927
N       -0.6221443192    0.5277092147    0.5018113254
O        1.0453620819    0.9804187596   -1.0371292118
O        1.7551978685   -3.6266107353   -2.7377473476
H        1.3879310050   -6.0861422871   -0.5771791511
H       -0.1104310998   -3.8418655643   -0.0315439969
H        2.7387371261   -5.5689568108   -2.7784243114
H       -2.0757022364   -0.7287819038    1.5568466782
H        0.8720300264   -1.2144326406   -2.8253787817
H       -0.1573876886    1.0304969251    2.4897092539
H       -1.1183860895    2.2439824190    1.5991538529
H        0.6138497071    2.0506687409    1.2637468522
21   

C        1.2990474583   -5.2835576706   -1.2869525932
C        0.5812548968   -4.0903522204   -0.9165020824
C        2.0315164210   -4.9579719462   -2.3933730420
C        0.9329913072   -3.1275586062   -1.8264823296
C       -1.3211344278   -0.6354626835    0.7992750827
C       -0.2117997234   -1.0708853665   -1.0099081261
C        0.1433734913    0.3136965119   -0.5769861681
C        0.5281145290   -1.7653216447   -1.9262473973
C       -0.4334024978    1.6387583451    1.4708300531
N       -1.1025531122   -1.5916547747   -0.0781004257
N       -0.6312422555    0.5520004071    0.5280043174
O        0.9815171559    1.0721984434   -1.0479326208
O        1.8207769369   -3.6470664151   -2.7384643161
H        1.2697708488   -6.2479885399   -0.7935245007
H       -0.1033393764   -3.9729290739   -0.0847194037
H        2.6884242865   -5.6355491034   -2.9265770107
H       -1.9696008837   -0.7654429618    1.6588943914
H        1.0597447771   -1.1853583098   -2.6709879171
H       -0.2419317760    1.2452155978    2.4740479734
H       -1.3203159024    2.2795462061    1.4958567749
H        0.4256423569    2.2512353654    1.1773546567
21   

C        1.2380748177   -5.3674749278   -1.4160009096
C        0.6021406874   -4.1600443550   -0.9538259020
C        1.9897370406   -5.0099361474   -2.4991793417
C        1.0163809081   -3.1569433341   -1.7917405895
C       -1.1846039866   -0.6522019695    0.9156938831
C       -0.0276395550   -1.1017953994   -0.8594618085
C        0.1912724025    0.3351383300   -0.5257167381
C        0.7064479559   -1.7654612311   -1.7974803978
C       -0.5356522398    1.7454608159    1.4172995987
N       -0.8755219096   -1.6395968236    0.1025122245
N       -0.6038192409    0.5719279481    0.5648127257
O        0.9413743863    1.1416326758   -1.0610319365
O        1.8673398981   -3.6657260507   -2.7442602487
H        1.1443552004   -6.3617944496   -0.9952919835
H       -0.0715742395   -4.0617056295   -0.1108536549
H        2.5988995229   -5.6883930485   -3.0853109609
H       -1.8251286695   -0.7829462984    1.7811280696
H        1.2440238950   -1.1668083762   -2.5230555393
H       -0.3154779115    1.4560500777    2.4496342561
H       -1.4864735339    2.2867119490    1.3871454309
H        0.2563507955    2.4214134311    1.0781785303
21   

C        1.1766946311   -5.4045642955   -1.5224855405
C        0.6279248307   -4.1929363824   -0.9688732413
C        1.9335733882   -5.0235270293   -2.5937984582
C        1.0934483572   -3.1636478955   -1.7463287572
C       -1.0420265743   -0.6661879525    1.0495924985
C        0.1563502290   -1.1150645550   -0.6984757139
C        0.2236640411    0.3550584044   -0.4688024552
C        0.8749749127   -1.7572185426   -1.6600501781
C       -0.6661387385    1.8223550943    1.3640785738
N       -0.6364670660   -1.6694425375    0.3008498032
N       -0.5854434958    0.5823508908    0.6131422310
O        0.8686324893    1.1991365490   -1.0780515239
O        1.8952919407   -3.6607524438   -2.7465930267
H        1.0244905307   -6.4169159010   -1.1669238235
H       -0.0247612061   -4.1102084915   -0.1079274556
H        2.4881008208   -5.6985383814   -3.2355010410
H       -1.6686745537   -0.8012072197    1.9244740640
H        1.4028725487   -1.1447404497   -2.3812425072
H       -0.4238196337    1.6477665504    2.4170300089
H       -1.6740762820    2.2422501923    1.2882236824
H        0.0437768361    2.5569071844    0.9695878939
21   

C        1.0841370745   -5.4207244146   -1.6015070076
C        0.6438699155   -4.2067347044   -0.9627742905
C        1.8393175803   -5.0340026741   -2.6719129807
C        1.1653278767   -3.1702927764   -1.6940472391
C       -0.8619062262   -0.6730894131    1.1899356629
C        0.3671646459   -1.1233858263   -0.5374079831
C        0.2901810185    0.3585149198   -0.4129051289
C        1.0559224634   -1.7584923616   -1.5241054217
C       -0.7862283774    1.8642640109    1.2893840699
N       -0.3686643573   -1.6815822393    0.5033079079
N       -0.5203062362    0.5791674019    0.6688399742
O        0.8211951366    1.2179735923   -1.1049616522
O        1.9006300491   -3.6654845198   -2.7451598945
H        0.8648231490   -6.4382703804   -1.2999338693
H        0.0227793741   -4.1276727616   -0.0784567511
H        2.3237535755   -5.7090560646   -3.3680050776
H       -1.4748354809   -0.8065308910    2.0747109590
H        1.5716001239   -1.1424757206   -2.2511263687
H       -0.5300821363    1.8341399869    2.3530220751
H       -1.8434028838    2.1247235166    1.1769566102
H       -0.1858834461    2.6490729388    0.8173188142
