31

C      1.85828   -1.17925   -0.00854
C      0.74269   -0.48856    2.00319
C      0.77056   -0.55051    0.60595
C      2.90622   -1.72838    0.73863
C      1.77295   -1.02620    2.78196
C      2.87119   -1.63427    2.14325
C      3.76100   -3.67992    3.37759
C     -1.05954   -0.75195   -1.25690
C     -1.77099   -0.33252    0.01389
C     -0.32688    0.06136   -0.21164
C      4.04029   -2.43194    0.02562
C      1.67595   -0.96853    4.29043
C      3.99156   -2.22247    2.96637
O      2.77232   -4.32897    3.14328
O      4.79764   -4.24080    4.07642
H      1.88030   -1.25251   -1.09368
H     -0.10934   -0.02191    2.49280
H     -0.78992   -1.79968   -1.35354
H     -1.33540   -0.26598   -2.18837
H     -2.53228    0.43962   -0.05039
H     -1.96784   -1.10465    0.75203
H     -0.16548    1.10798   -0.46643
H      5.00266   -1.93054    0.18681
H      4.14772   -3.46806    0.36562
H      3.86425   -2.45619   -1.05257
H      1.71615   -1.97029    4.73197
H      2.48833   -0.37900    4.73321
H      0.73483   -0.50831    4.60117
H      4.14383   -1.64667    3.88642
H      4.94146   -2.17540    2.42268
H      5.51529   -3.59294    4.18099
