30

C      1.74469   -0.92301   -0.19209
C      0.65090   -0.33386    1.86012
C      0.65808   -0.32957    0.46061
C      2.79857   -1.51206    0.51710
C      1.68803   -0.91377    2.60098
C      2.77220   -1.52809    1.93144
C      5.03979   -1.04429    3.00064
C     -0.90471    1.70558   -0.06266
C     -0.20742    1.34161   -1.36023
C     -0.47303    0.27623   -0.31678
C      3.96960   -2.10525   -0.23594
C      1.65178   -0.85685    4.11285
C      3.91362   -2.12829    2.71197
O      5.93498   -0.95477    2.11793
O      4.89504   -0.39419    4.07070
H      1.77844   -0.90873   -1.28112
H     -0.17583    0.14352    2.38539
H     -0.33394    2.26950    0.66936
H     -1.96545    1.94280   -0.09594
H     -0.79408    1.33119   -2.27582
H      0.82203    1.66585   -1.48162
H     -1.28636   -0.40759   -0.56233
H      4.91378   -1.72710    0.17029
H      3.98962   -3.20009   -0.14108
H      3.90529   -1.86574   -1.30325
H      1.49186   -1.85500    4.54437
H      2.60503   -0.48387    4.50233
H      0.83539   -0.21198    4.45683
H      3.55582   -2.51698    3.66847
H      4.36329   -2.95237    2.15278
