28

C      5.39346   -0.71377    1.50228
C      5.74917   -0.62898    3.89449
C      4.17849   -0.02385    1.63828
C      6.16462   -1.03116    2.62230
C      3.74108    0.37443    2.91713
C      4.55507    0.07468    4.02422
C      3.33968    0.25885    0.41432
C      4.65322    2.17485   -0.53773
C      3.13908    0.79374   -2.04822
C      2.59759    2.44038    2.95038
C      4.06523    0.77857   -0.83092
O      2.12936    0.10636    0.43258
O      7.34328   -1.73080    2.54208
O      2.54925    1.01746    3.10851
Cl     4.05101    0.59175    5.61795
H      5.72655   -1.03456    0.51833
H      6.35539   -0.86805    4.76165
H      3.85167    2.89683   -0.34722
H      5.22398    2.53049   -1.40135
H      5.31970    2.16447    0.32963
H      2.28889    1.46078   -1.88113
H      2.73709   -0.20194   -2.25448
H      3.68429    1.14011   -2.93245
H      1.58915    2.80328    3.15430
H      2.88102    2.71138    1.92653
H      3.30327    2.89018    3.65903
H      4.90919    0.10817   -1.03611
H      7.51141   -1.97208    1.61747
