31

C      1.87754   -1.11185   -0.03056
C      0.77699   -0.57389    2.03681
C      0.83387   -0.46760    0.64270
C      2.84539   -1.85569    0.65431
C      1.72574   -1.30849    2.75707
C      2.76604   -1.96404    2.06082
C      5.04595   -1.92721    3.27360
C     -0.51543    1.73757    0.22037
C      0.16842    1.38557   -1.08545
C     -0.21468    0.29196   -0.11214
C      3.96145   -2.52129   -0.12128
C      1.62640   -1.37983    4.26538
C      3.81894   -2.73628    2.82299
O      5.95857   -2.41834    3.89744
O      5.06379   -0.61163    2.93451
H      1.93884   -1.02483   -1.11299
H     -0.02228   -0.06549    2.57136
H      0.08971    2.21067    0.98842
H     -1.54931    2.06866    0.18976
H     -0.39887    1.47667   -2.00703
H      1.22339    1.62769   -1.17672
H     -1.07612   -0.30852   -0.40100
H      4.95060   -2.21727    0.23833
H      3.91210   -3.61354   -0.04199
H      3.90219   -2.26553   -1.18180
H      1.43714   -2.40341    4.60918
H      2.54630   -1.04144    4.75470
H      0.80845   -0.75389    4.62977
H      4.21435   -3.56778    2.23551
H      3.41236   -3.18537    3.73173
H      4.24685   -0.40439    2.43967
