23

C      3.78986   -0.52668   -0.46629
C      4.70654    0.09562   -1.37050
C      2.55698    0.07428   -0.47318
C      4.20034    1.15905   -2.07295
C      4.85033    2.00712   -3.12444
C      1.24562    2.30656    3.21277
C      1.36586   -0.25498    0.40077
C      1.31328    1.80350    1.77206
N      1.36190    0.33734    1.74333
S      2.53737    1.40530   -1.60260
Br     6.49754   -0.53633   -1.58556
H      4.04208   -1.38133    0.15304
H      4.69608    1.58516   -4.12447
H      4.44900    3.02435   -3.12290
H      5.92759    2.06404   -2.94977
H      0.37421    1.89078    3.72738
H      2.14201    2.01439    3.77312
H      1.18139    3.39939    3.23837
H      0.43873    0.04352   -0.10076
H      1.32116   -1.34290    0.51917
H      2.16844    2.27144    1.25784
H      0.41179    2.11382    1.22858
H      2.19553    0.02611    2.24073
