38

C     -3.24866    1.94307  -10.00401
C     -4.03985    3.09313   -9.91413
C     -2.49559    1.53461   -8.90335
C     -4.06690    3.84136   -8.73522
C     -1.03000    1.01344   -4.66660
C     -2.52152    2.27157   -7.71578
C     -3.29929    3.43634   -7.64062
C      0.06117    1.43178   -5.49830
C     -2.15280    1.29219   -5.43563
C     -1.02929    0.42171   -3.34028
C      1.35641   -1.02418   -1.17577
C     -1.04230   -1.03818   -0.88903
C      1.27278   -2.46000   -1.69837
C     -1.07866   -2.46967   -1.43340
C      1.52449    1.37509   -5.19636
N     -0.36997    1.91750   -6.66133
N      0.08060    0.17137   -2.72973
N     -1.73731    1.83522   -6.61568
N      0.10587   -0.29942   -1.44065
O      0.14659   -3.14556   -1.14132
Cl    -3.29636    4.41131   -6.19063
Cl    -3.81853    1.00498   -5.09460
H     -3.22266    1.36548  -10.92332
H     -4.63496    3.41614  -10.76378
H     -1.87469    0.64495   -8.94300
H     -4.66644    4.74295   -8.66191
H     -2.01361    0.22283   -2.91003
H      1.52103   -1.03332   -0.09286
H      2.17256   -0.47989   -1.65547
H     -1.97554   -0.50420   -1.07909
H     -0.90579   -1.06941    0.19655
H      1.19880   -2.44863   -2.79666
H      2.15512   -3.03851   -1.41082
H     -1.87197   -3.05122   -0.95563
H     -1.25391   -2.46314   -2.51932
H      1.84657    0.34360   -5.02386
H      2.08705    1.79776   -6.03230
H      1.75349    1.93031   -4.28207
