31

C      3.79421   -2.97845   -0.31509
C      3.78064   -1.58426   -0.18396
C      2.67111   -3.67724   -0.77650
C     -1.49830   -6.71403   -3.69150
C     -1.65395   -8.52098   -2.09135
C      2.63364   -0.84894   -0.51509
C     -2.63519   -7.19044   -4.34444
C     -2.79728   -8.99938   -2.72815
C      1.52387   -2.94776   -1.10715
C     -0.99716   -7.36295   -2.54612
C      1.53449   -1.55734   -0.96897
C     -3.28446   -8.32487   -3.85141
C      0.18880   -3.37438   -1.62175
C      0.21847   -6.91876   -1.83429
N     -0.70747   -2.45420   -1.84662
N      0.62612   -5.72587   -1.55871
N     -0.15299   -4.66511   -1.91218
O     -0.78652   -0.35609   -0.33633
O      0.05903   -0.13960   -2.71036
S     -0.07270   -0.92073   -1.48077
Cl    -4.71802   -8.91865   -4.65955
H      4.69224   -3.53108   -0.05354
H      4.66523   -1.06679    0.17680
H      2.68231   -4.75445   -0.87245
H     -0.97823   -5.85779   -4.11088
H     -1.27088   -9.04806   -1.22104
H      2.60625    0.23244   -0.42085
H     -3.01020   -6.69033   -5.23156
H     -3.30493   -9.88639   -2.36297
H      0.87523   -7.69937   -1.45294
H     -1.12085   -4.79917   -2.20637
