34

C     -0.15030   -2.15931    1.61794
C      0.53709   -1.06909    1.02827
C      2.62041   -5.28371   -0.88761
C      0.20283   -3.44743    1.28342
C      1.55541   -1.28725    0.12351
C      1.60537   -5.03715    0.01491
C      3.31561   -4.21418   -1.48418
C      1.24882   -3.70576    0.35343
C      1.95035   -2.60535   -0.24836
C      3.00407   -2.89095   -1.18555
C      8.33655   -1.37782   -5.87764
C      7.86622   -0.11184   -5.43768
C      6.36854   -1.16806   -4.13245
C      3.75810   -1.81263   -1.83362
C      9.45454   -1.51922   -6.86954
N      7.76015   -2.47042   -5.38812
N      6.88639    0.00681   -4.56854
N      6.75981   -2.39294   -4.50157
N      4.70049   -2.07336   -2.67309
N      5.34481   -1.02027   -3.22411
O      8.44446    1.00489   -5.92826
H     -0.95073   -1.97458    2.32939
H      0.25882   -0.05194    1.29174
H      2.88982   -6.30488   -1.14371
H     -0.31629   -4.29331    1.72826
H      2.05455   -0.42457   -0.30365
H      1.06559   -5.85961    0.47838
H      4.11346   -4.40991   -2.19343
H      3.50686   -0.77440   -1.59182
H     10.37339   -1.05334   -6.49753
H      9.63793   -2.57955   -7.05189
H      9.20616   -1.02835   -7.81668
H      5.09497   -0.06058   -2.98421
H      7.99200    1.76402   -5.51368
