27

C      8.50752   -4.89817    0.32036
C      8.89426   -5.78284   -0.69074
C      7.31405   -4.19318    0.19787
C      2.91698   -1.75408    2.04791
C      2.09897   -1.11377    2.96838
C      8.08059   -5.95692   -1.81075
C      0.89939   -0.06966    1.13104
C      2.75657   -1.58095    0.65720
C      6.48029   -4.33977   -0.92940
C      1.08788   -0.27141    2.49632
C      1.73064   -0.72115    0.21474
C      6.88423   -5.24332   -1.93185
C      5.25085   -3.52613   -0.94845
C      3.68964   -2.31985   -0.19777
N      4.73540   -2.98902    0.21694
N      4.56813   -3.20095   -2.02930
O      3.52385   -2.39963   -1.53229
Cl     0.04034    0.54579    3.63224
Cl     1.43227   -0.39231   -1.47382
Br     5.84004   -5.60507   -3.49420
H      9.13162   -4.75866    1.19836
H      9.82252   -6.34205   -0.61106
H      6.99823   -3.50679    0.97581
H      3.70697   -2.41488    2.38748
H      2.23674   -1.26404    4.03379
H      8.36727   -6.64999   -2.59453
H      0.11618    0.58938    0.77402
