25

C     -4.01914    0.18554   -1.14284
C     -4.03463   -1.16475   -0.78003
C     -2.26642   -1.57884   -2.40054
C     -2.23655   -0.22305   -2.75528
C     -3.14715    0.63700   -2.12314
C     -3.15626   -2.03177   -1.42872
C      0.48026    0.28695   -0.60058
C      1.15130   -0.54519   -1.69178
C      0.40580    1.43154   -2.61167
C     -0.65002    1.36840   -3.71356
O     -0.21799    1.29616   -1.34094
O      1.39419    0.41870   -2.72380
O     -1.36498    0.12323   -3.74989
F     -3.18825    1.95069   -2.46584
Br    -3.15650   -3.89582   -0.97179
H     -4.69177    0.89920   -0.67667
H     -4.71873   -1.52540   -0.02017
H     -1.58657   -2.25614   -2.90542
H     -0.25287   -0.27283   -0.01496
H      1.21460    0.75337    0.06817
H      2.11171   -0.96875   -1.38975
H      0.49448   -1.34198   -2.05599
H      0.92064    2.40178   -2.68478
H     -0.14544    1.42123   -4.68043
H     -1.32736    2.21831   -3.61367
