32

C      0.55109   -5.44130   -0.21186
C      0.02598   -1.54804   -1.95585
C     -0.76887   -5.43260    0.35764
C      0.26432   -1.05373   -0.63822
C      0.51220   -2.86255   -1.99781
C      0.67110   -6.68800   -0.75954
C     -1.46093   -4.31001    1.06684
C     -0.04835    0.28040   -0.04071
C      0.54966   -3.88481   -3.08605
C      1.74859   -7.38195   -1.52002
C      1.54487   -4.32064   -0.20298
N      0.84920   -2.00348    0.08387
N     -1.37830   -6.58151    0.16821
N      0.99452   -3.07958   -0.75374
N     -0.59184   -0.84362   -3.03203
O     -0.77383   -1.44493   -4.10521
O     -0.91889    0.33721   -2.83475
O     -0.46431   -7.38767   -0.54054
H     -1.65167   -3.47931    0.38031
H     -2.41246   -4.65612    1.47487
H     -0.84075   -3.91775    1.87797
H     -1.11817    0.49655   -0.10589
H      0.26368    0.28699    1.00581
H      0.46584    1.07970   -0.58105
H      0.61251   -3.39393   -4.05616
H      1.39971   -4.55933   -2.96080
H     -0.36429   -4.48854   -3.07758
H      2.08832   -8.27515   -0.98625
H      1.38317   -7.69874   -2.50213
H      2.60680   -6.72214   -1.66393
H      1.85169   -4.05905    0.81177
H      2.44543   -4.59695   -0.75926
