25

C      1.84706    4.32352    1.57869
C      1.09479    4.28924    2.75032
C     -0.02778    2.22332    2.04293
C      1.73748    1.92788   -1.14341
C      0.72478    2.24136    0.85216
C      0.79230    1.37522   -0.30705
C      1.65526    3.30054    0.64358
C      0.17375    3.24383    2.96178
C     -1.50815    0.12802   -0.33404
C     -1.26898   -0.90677    0.79450
C      0.03416    0.11661   -0.57820
N      2.25481    3.08449   -0.58408
N      0.17544   -0.98892    0.43000
Br    -0.84517    3.23732    4.59450
H      2.56003    5.12601    1.40699
H      1.21516    5.06383    3.50000
H     -0.74845    1.44033    2.24632
H      2.08316    1.57802   -2.10768
H     -2.09328   -0.24289   -1.17864
H     -1.91451    1.09000   -0.01588
H     -1.46886   -0.52793    1.80460
H     -1.78850   -1.86435    0.68233
H      0.30940   -0.23745   -1.57851
H      2.96866    3.66586   -0.99879
H      0.80539   -0.74751    1.19197
