34

C     -0.74140   -2.17943   -0.01604
C      0.13257   -1.11283   -0.34369
C      3.03616   -5.24889    0.14229
C     -0.22983   -3.44277    0.17917
C      1.48930   -1.32935   -0.46849
C      1.68270   -5.00449    0.26091
C      3.92088   -4.20256   -0.18259
C      1.16496   -3.69875    0.05772
C      2.05715   -2.62220   -0.27426
C      3.46304   -2.90492   -0.39160
C     10.47726   -1.43584   -1.56838
C      9.80949   -0.19403   -1.74024
C      7.86231   -1.22525   -1.28489
C      4.42519   -1.85018   -0.72792
C     11.96360   -1.57723   -1.72506
N      9.75197   -2.50504   -1.25797
N      8.50708   -0.07525   -1.60190
N      8.42377   -2.42656   -1.10813
N      5.68356   -2.10811   -0.83162
N      6.50084   -1.07773   -1.14491
O     10.53632    0.89879   -2.05578
H     -1.80831   -1.99621    0.07945
H     -0.27053   -0.11525   -0.49793
H      3.42792   -6.25038    0.29880
H     -0.88902   -4.27036    0.43104
H      2.12164   -0.48523   -0.72038
H      0.99537   -5.80906    0.51158
H      4.98469   -4.39651   -0.27547
H      4.05589   -0.83208   -0.89100
H     12.49791   -0.93316   -1.01837
H     12.24407   -2.61673   -1.54629
H     12.28387   -1.28545   -2.73104
H      6.13548   -0.13674   -1.29329
H      9.91013    1.64387   -2.13070
