35

C      7.61160   -0.88119    2.42322
C      6.25008   -0.70009    2.06886
C      6.17223    4.46088   -4.82472
C      7.48162    4.20317   -4.36494
C      8.47564   -2.91948   -1.91144
C      8.48570   -1.47264    1.53548
C      5.79221   -1.10782    0.83281
C      5.15691    3.53687   -4.61371
C      8.93487   -2.51310   -0.67652
C      7.12364   -2.72465   -2.27980
C      7.78593    3.02231   -3.69351
C      8.04630   -1.90614    0.25366
C      6.67244   -1.71489   -0.10271
C      5.44509    2.33686   -3.93253
C      6.23390   -2.11883   -1.40664
C      4.57120    1.24543   -3.59585
C      6.76341    2.08886   -3.47690
C      5.19207    0.21293   -2.92182
C      4.47174   -0.95512   -2.43916
N      4.87849   -1.96787   -1.76113
O      3.24049    1.20445   -3.90134
S      6.91397    0.54246   -2.67527
H      7.96239   -0.55477    3.39906
H      5.56604   -0.24129    2.77818
H      5.95997    5.38826   -5.34882
H      8.26405    4.93680   -4.53842
H      9.15388   -3.38714   -2.62061
H      9.52968   -1.61598    1.80553
H      4.74951   -0.97617    0.56231
H      4.15392    3.75005   -4.98084
H      9.97630   -2.65518   -0.39822
H      6.77151   -3.03771   -3.25851
H      8.79584    2.82844   -3.34274
H      3.40816   -0.93620   -2.68654
H      2.97454    2.05089   -4.29327
