39

C      1.88127   -8.64223   -0.83897
C      2.45721   -8.80937    0.42947
C      0.64761   -7.99892   -0.98948
C      1.81343   -8.33589    1.58045
C     -3.68204   -8.83576    1.81676
C      0.00271   -7.52851    0.15240
C     -4.38176   -7.76901    1.14865
C      0.59118   -7.70279    1.40237
C     -4.22627  -10.02375    1.39379
C     -5.34178   -8.36044    0.31830
C     -1.31125   -6.82186    0.19657
C     -4.15578   -6.33412    1.27269
C     -3.89505  -11.42735    1.79029
C     -6.31924   -7.74086   -0.62724
C     -6.07961  -10.70373   -0.18268
C     -2.84811   -5.84083    1.92902
N     -5.22551   -9.72091    0.46470
N     -1.65219   -6.57785    1.52296
O     -1.99731   -6.50586   -0.76020
O     -4.95749   -5.46654    0.93079
O     -0.96311   -8.00891    3.58614
O      0.14687   -5.77638    3.23612
S     -0.44013   -6.99061    2.67320
H      2.40288   -9.01773   -1.71471
H      3.41619   -9.31088    0.52309
H      0.18626   -7.85925   -1.96246
H      2.25240   -8.45913    2.56574
H     -2.89709   -8.74763    2.55454
H     -4.75804  -11.95758    2.21152
H     -3.51996  -12.02303    0.94820
H     -3.11317  -11.40714    2.55283
H     -6.15315   -8.08038   -1.65726
H     -7.35326   -7.98973   -0.35804
H     -6.21300   -6.65800   -0.59462
H     -6.98378  -10.89559    0.40687
H     -6.37619  -10.34909   -1.17075
H     -5.53700  -11.64217   -0.30488
H     -2.94928   -5.94400    3.01442
H     -2.74549   -4.78075    1.68894
