38

C     -3.69320    4.09494   -9.09120
C     -4.30146    3.11750   -9.88556
C     -2.89021    3.71107   -8.01699
C     -4.09905    1.76186   -9.61700
C     -1.06964    1.27035   -4.68789
C     -2.68639    2.35760   -7.73575
C     -3.28393    1.38312   -8.54788
C     -0.02448    1.71255   -5.55920
C     -2.22717    1.47626   -5.43334
C     -0.88441    0.73702   -3.34739
C     -0.45045   -0.64025   -0.88112
C     -2.85264   -0.90505   -0.91880
C     -0.30541   -2.07558   -1.39736
C     -2.65682   -2.33813   -1.41775
C      1.44936    1.72472   -5.28841
N     -0.49899    2.14822   -6.72528
N     -1.88510    0.37263   -2.61939
N     -1.85570    1.99507   -6.64138
N     -1.72566   -0.05410   -1.32665
O     -1.40836   -2.87449   -0.96530
Cl    -2.99857   -0.31394   -8.24687
Cl    -3.87842    1.21330   -5.04559
H     -3.84712    5.14872   -9.30400
H     -4.93309    3.40629  -10.72108
H     -2.40832    4.44737   -7.38115
H     -4.55777    0.99728  -10.23563
H      0.15455    0.68030   -3.01229
H     -0.47173   -0.65148    0.21320
H      0.39138   -0.01142   -1.17851
H     -3.76811   -0.47118   -1.32580
H     -2.90671   -0.89682    0.17528
H     -0.24373   -2.08324   -2.49566
H      0.59411   -2.54890   -0.99368
H     -3.43289   -3.00290   -1.02846
H     -2.69514   -2.35317   -2.51746
H      1.82800    0.71477   -5.09511
H      1.97684    2.12956   -6.15483
H      1.69110    2.34194   -4.41586
