36

C      1.97957   -4.79911   -0.81906
C      0.08929    0.16504    3.46353
C     -7.83440    0.53358    3.18776
C     -8.51803    1.46837    3.97005
C      1.72861   -2.96011    0.80083
C     -0.24950   -3.94300   -0.22407
C     -6.44447    0.48083    3.24699
C      0.92780   -2.08356    1.52165
C     -1.04416   -3.06351    0.49980
C     -7.80224    2.33502    4.79854
C      1.14756   -3.89498   -0.07603
C     -5.71824    1.35255    4.08083
C     -0.47870   -2.11778    1.38520
C     -6.40235    2.30403    4.87796
C     -4.25324    1.21267    4.06802
C     -2.35555    0.46129    3.54235
C     -1.40931   -1.24905    2.08923
C     -1.19957   -0.25131    2.99464
C     -5.70244    3.27410    5.79755
N      2.65270   -5.53395   -1.42318
N      1.13718    0.50311    3.84435
N     -3.61675    0.26880    3.27398
N     -3.41479    1.94406    4.78515
O     -2.14510    1.44415    4.43592
H     -8.37836   -0.14695    2.53855
H     -9.60308    1.52413    3.93681
H      2.80793   -2.92760    0.91109
H     -0.69671   -4.66428   -0.90053
H     -5.89749   -0.23791    2.64714
H      1.40242   -1.37570    2.18819
H     -2.12391   -3.10307    0.38317
H     -8.34167    3.05922    5.40383
H     -2.45894   -1.41770    1.85937
H     -5.10531    2.75359    6.55190
H     -5.00559    3.91552    5.25028
H     -6.43359    3.90714    6.30664
