16   
Generated by ForceBalance from scan.xyz: Frame 1 of 24
C        5.2755811685    1.0216881882    1.8666007673
C        4.1505210844    1.6027905914    1.3279835777
C        4.7725774005   -0.1521567394    0.1502062988
C        4.0888893686   -1.0775628288   -2.0254964964
C        4.4209026385   -2.1493600730   -3.0431054126
N        5.6664394659   -0.0755929080    1.1168859240
N        3.8306905485    0.8282220507    0.2203474613
N        4.8049457394   -1.1243139233   -0.8533124860
O        3.2205780960   -0.2255636277   -2.2307363882
H        5.8293054089    1.3258051888    2.7448874919
H        3.5632569337    2.4630757623    1.6139635287
H        3.4959901548   -2.6492303935   -3.3407507001
H        5.1321900768   -2.8947368344   -2.6781125037
H        4.8362611431   -1.6678156124   -3.9331832644
H        3.1189957233    0.9650849556   -0.4905682355
H        5.5594232233   -1.7912318229   -0.7454850310
16   
Generated by ForceBalance from scan.xyz: Frame 2 of 24
C        3.6008968333    1.6586138594    1.1946202155
C        4.7635406978    1.0656760951    1.6296292635
C        4.2181220862    0.3504854208   -0.3823404369
C        4.8271967909   -1.6281429005   -1.7038569319
C        4.4478480562   -2.3997799382   -2.9510511204
N        3.2562492879    1.1940962033   -0.0646126652
N        5.1610136654    0.2304027450    0.5930509394
N        4.2448940873   -0.3846610473   -1.5734333755
O        5.6217818326   -2.0691464550   -0.8721891134
H        2.9893770240    2.3877613549    1.7093176151
H        5.3328735166    1.1553641776    2.5432186558
H        3.9283606945   -1.7922378360   -3.6966449820
H        3.7990287721   -3.2323003297   -2.6611479199
H        5.3521849421   -2.8229138362   -3.3931556858
H        5.8793775707   -0.4863099746    0.5838301995
H        3.5023199743   -0.1252362671   -2.2123168587
16   
Generated by ForceBalance from scan.xyz: Frame 3 of 24
C        3.5102055900    1.4779706808    1.2563853422
C        4.7630735615    1.0396397612    1.6165484843
C        4.2364732249    0.3450676114   -0.4096567706
C        4.8336789498   -1.6275504340   -1.7342355705
C        4.3943428215   -2.3926662118   -2.9660325870
N        3.1778278812    1.0195279501   -0.0088835959
N        5.2307923892    0.3229725561    0.5219617510
N        4.3164706688   -0.3457727927   -1.6279159418
O        5.6107445074   -2.0865378042   -0.9002399606
H        2.8254816835    2.0895035079    1.8289179144
H        5.3527431392    1.1669381305    2.5126632879
H        4.2362332113   -1.7372873502   -3.8274349670
H        3.4517051521   -2.9078734364   -2.7502720531
H        5.1485237441   -3.1420843191   -3.2075184469
H        6.0216241214   -0.3099277080    0.4770047516
H        3.5601933481   -0.0975818634   -2.2565100122
16   
Generated by ForceBalance from scan.xyz: Frame 4 of 24
C        3.4765309830    1.3798780187    1.2820550305
C        4.7775309364    1.0726200404    1.6064680858
C        4.2768623789    0.3496320118   -0.4190764493
C        4.7916445051   -1.6625166721   -1.7054740491
C        4.3562357009   -2.3916810483   -2.9608368891
N        3.1640132817    0.9022303488    0.0195589428
N        5.2895390374    0.4246160805    0.4908680936
N        4.4097313469   -0.3237652632   -1.6464239286
O        5.4573456521   -2.1861297887   -0.8196652798
H        2.7458221085    1.9095786923    1.8788986503
H        5.3719894073    1.2499950325    2.4909062761
H        4.3378728198   -1.7351863852   -3.8356739830
H        3.3464058719   -2.7894194404   -2.8101703122
H        5.0324072922   -3.2276547007   -3.1413750579
H        6.1459000857   -0.1124988285    0.4312353809
H        3.7011033987   -0.0346929870   -2.3126779226
16   
Generated by ForceBalance from scan.xyz: Frame 5 of 24
C        3.4472304631    1.2853770609    1.3284754795
C        4.7882954232    1.1377652905    1.6034986937
C        4.2956724887    0.3309249539   -0.3944578493
C        4.7140056824   -1.7121719694   -1.6554082163
C        4.3407488439   -2.3834937276   -2.9629603070
N        3.1453642745    0.7586303750    0.0853930120
N        5.3255263331    0.5383101876    0.4765256718
N        4.4758813612   -0.3347245983   -1.6231428023
O        5.2116472046   -2.3061879001   -0.7101331604
H        2.6832503626    1.7316076828    1.9514116211
H        5.3908777241    1.3944033029    2.4627305325
H        4.4975665954   -1.7285173156   -3.8250858920
H        3.2807228033   -2.6591452443   -2.9308542812
H        4.9300699321   -3.2934280044   -3.0785930805
H        6.2589249638    0.1631666690    0.3692136775
H        3.8610142639    0.0170788331   -2.3496024331
16   
Generated by ForceBalance from scan.xyz: Frame 6 of 24
C        3.4534100122    1.1834943485    1.3766461231
C        4.8154075634    1.1998890087    1.5869892180
C        4.3239494374    0.2938923643   -0.3711149893
C        4.6214158579   -1.7663601917   -1.6283594980
C        4.3275477087   -2.3814415262   -2.9838040176
N        3.1575824211    0.6021535299    0.1590736119
N        5.3619500729    0.6362970830    0.4492292140
N        4.5379395779   -0.3687042864   -1.5983252212
O        4.9306894502   -2.4190828811   -0.6447266715
H        2.6734009975    1.5496306765    2.0312962710
H        5.4233214284    1.5479343520    2.4096603396
H        4.6551285551   -1.7435111490   -3.8101274447
H        3.2465626235   -2.5344755141   -3.0768368955
H        4.8194300706   -3.3522113246   -3.0494885149
H        6.3340590859    0.4118899398    0.2827828541
H        4.0495463657    0.0524098647   -2.3818175594
16   
Generated by ForceBalance from scan.xyz: Frame 7 of 24
C        3.4555880306    1.0843368659    1.4145672062
C        4.8147176912    1.2639147266    1.5651834267
C        4.3499506657    0.2547032038   -0.3503362564
C        4.5330878873   -1.8140181369   -1.6118426085
C        4.3034956404   -2.3850125238   -2.9992599707
N        3.1794469141    0.4439540337    0.2242513693
N        5.3753686469    0.7321821033    0.4205903664
N        4.5984983133   -0.4147988787   -1.5680767019
O        4.6743645888   -2.5019987045   -0.6154344491
H        2.6663250755    1.3737602669    2.0960680332
H        5.4101804553    1.7062712331    2.3509582481
H        4.7825044224   -1.7868889836   -3.7804875953
H        3.2265211453   -2.4102759418   -3.1993153620
H        4.6839170380   -3.4061878337   -3.0317234979
H        6.3593267690    0.6324452671    0.2086121093
H        4.2467195309    0.0597796493   -2.3934406835
16   
Generated by ForceBalance from scan.xyz: Frame 8 of 24
C        3.4751555356    1.0147975946    1.4578603778
C        4.8088141556    1.3556540049    1.5458549245
C        4.3923875019    0.2203407037   -0.3115496144
C        4.4680979878   -1.8513703388   -1.5914182178
C        4.2846698035   -2.3699303760   -3.0067245626
N        3.2303370301    0.3025120755    0.3030477720
N        5.3860154871    0.8390508590    0.4022584739
N        4.6769183123   -0.4667708389   -1.5110951395
O        4.4610697922   -2.5686917549   -0.6072093028
H        2.6831553753    1.2397949500    2.1602279187
H        5.3760324730    1.9009813229    2.2865641648
H        4.8803819210   -1.8129316783   -3.7366901657
H        3.2289270168   -2.2778119265   -3.2851206029
H        4.5582942336   -3.4247871511   -3.0373361450
H        6.3676763936    0.8377533910    0.1586065180
H        4.4683500189    0.0469701368   -2.3615757348
16   
Generated by ForceBalance from scan.xyz: Frame 9 of 24
C        3.5147457064    0.9413539602    1.5020609133
C        4.8015258537    1.4353257722    1.5038513255
C        4.4334532247    0.1554827808   -0.2702728717
C        4.4042080249   -1.9040048550   -1.5998241680
C        4.2829290334   -2.3497424269   -3.0472581767
N        3.2991212928    0.1446758541    0.3968268213
N        5.3841461005    0.9194580023    0.3601321217
N        4.7438238803   -0.5506030698   -1.4505015155
O        4.2478457254   -2.6532431215   -0.6539068024
H        2.7337685412    1.1157216605    2.2306554082
H        5.3337558451    2.0870536618    2.1818572983
H        4.9897603198   -1.8349298731   -3.7059132631
H        3.2682845244   -2.1371671206   -3.4022055809
H        4.4486929137   -3.4258558081   -3.1017446113
H        6.3524741174    1.0012448424    0.0798556563
H        4.6925600225   -0.0045118001   -2.3048492622
16   
Generated by ForceBalance from scan.xyz: Frame 10 of 24
C        3.5496652976    0.8845323415    1.5842009897
C        4.7693376202    1.5103993564    1.4642574874
C        4.4272212553    0.0816338445   -0.2007310498
C        4.2845926124   -1.9539578197   -1.5958136361
C        4.2801871186   -2.3396528049   -3.0667422939
N        3.3476116704   -0.0020777077    0.5440869006
N        5.3309256478    0.9825773670    0.3108402102
N        4.7394162063   -0.6480548191   -1.3626460100
O        3.9482202258   -2.7128462162   -0.7071513115
H        2.8019867645    1.0238264972    2.3540446730
H        5.2697417268    2.2609485637    2.0590483661
H        5.1029532063   -1.8821912583   -3.6258870743
H        3.3369279520   -2.0150117696   -3.5200975592
H        4.3444256557   -3.4250352345   -3.1463680916
H        6.2729167159    1.1337493027   -0.0246932774
H        4.8718271451   -0.0884364836   -2.1984475529
16   
Generated by ForceBalance from scan.xyz: Frame 11 of 24
C        3.6179032221    0.8376345802    1.6819267945
C        4.7458305671    1.5771921514    1.4224416351
C        4.4145989815    0.0290222469   -0.1374002418
C        4.1504835499   -1.9547947237   -1.6240457899
C        4.3128986024   -2.3081977725   -3.0958475898
N        3.4184887329   -0.1218203872    0.7043117001
N        5.2587323104    1.0483410292    0.2420284727
N        4.7049053197   -0.7126439306   -1.2928659844
O        3.6042015225   -2.6870870811   -0.8219255059
H        2.9271929320    0.9418978324    2.5083976239
H        5.2143910773    2.4066684628    1.9320134264
H        5.2440204225   -1.9249132892   -3.5260723962
H        3.4749801769   -1.8872603401   -3.6626897365
H        4.2852368113   -3.3931881297   -3.1992109765
H        6.1550396445    1.2720992056   -0.1695329223
H        5.0417060487   -0.1683953241   -2.0781597204
16   
Generated by ForceBalance from scan.xyz: Frame 12 of 24
C        3.9148965583    0.6182259001    1.8880896028
C        4.6953685235    1.6207426089    1.3703882664
C        4.4017651693   -0.0229948521   -0.0999062363
C        3.9869147434   -1.9142657664   -1.6926005168
C        4.4832577235   -2.4085315204   -3.0459068703
N        3.7367519736   -0.4009907511    0.9668323457
N        5.0090818580    1.2008006801    0.0789062281
N        4.5371571950   -0.6847476613   -1.3247280437
O        3.2045671844   -2.5431791845   -1.0060912306
H        3.4679033976    0.5608939008    2.8718898238
H        5.0531011504    2.5582746093    1.7704465070
H        5.3830607797   -3.0160729347   -2.8996902804
H        4.7244321574   -1.5984444025   -3.7419335636
H        3.7132894243   -3.0436136024   -3.4851783332
H        5.5497845818    1.7248053136   -0.5961766768
H        5.2017188228   -0.2827064515   -1.9719156317
16   
Generated by ForceBalance from scan.xyz: Frame 13 of 24
C        4.0774142659    0.5231604798    1.9371650967
C        4.6632775369    1.6342367282    1.3815266908
C        4.4730322828   -0.0100735562   -0.1020368881
C        3.8922333997   -1.7760473164   -1.7634042460
C        4.5083101692   -2.4400081643   -2.9869582670
N        3.9638983856   -0.4952190981    1.0065335803
N        4.9174761228    1.2829703427    0.0593363895
N        4.5769872894   -0.6232961566   -1.3599950502
O        2.8997368585   -2.2028906499   -1.2059875937
H        3.7370471538    0.3871375163    2.9553303738
H        4.9301762543    2.6019815180    1.7808680236
H        5.2942289479   -3.1321195987   -2.6646082718
H        4.9503048086   -1.7212731524   -3.6848192942
H        3.7355065026   -3.0141421848   -3.4986501001
H        5.2286649125    1.9078816322   -0.6724177419
H        5.4399509003   -0.4386388529   -1.8575182378
16   
Generated by ForceBalance from scan.xyz: Frame 14 of 24
C        4.1821759710    0.4499280293    1.9353128502
C        4.5817549784    1.6378550924    1.3670249497
C        4.5514163772   -0.0029737525   -0.1285422316
C        3.8574351753   -1.6599560058   -1.8265739778
C        4.4709370912   -2.4679857628   -2.9593775089
N        4.1668204292   -0.5633608341    0.9963341063
N        4.8140863249    1.3367689425    0.0329925984
N        4.6648557120   -0.5956358632   -1.3997045346
O        2.7638373997   -1.9008083085   -1.3525322681
H        3.9111592934    0.2620744647    2.9660206329
H        4.7293049462    2.6297600719    1.7693409557
H        5.1253310645   -3.2388658922   -2.5372196884
H        5.0649547575   -1.8532092342   -3.6435294491
H        3.6715673527   -2.9609616690   -3.5129616338
H        5.0160370430    1.9953828642   -0.7074236313
H        5.5984595575   -0.5848921307   -1.7966782131
16   
Generated by ForceBalance from scan.xyz: Frame 15 of 24
C        4.2828579173    0.4165385428    1.9272285656
C        4.4966530666    1.6459140083    1.3417875143
C        4.6512261763    0.0084740658   -0.1466688669
C        3.8828511391   -1.5438898734   -1.8815024816
C        4.4496623766   -2.4604700683   -2.9525007162
N        4.3776163145   -0.5926199300    0.9916255635
N        4.7284679575    1.3706634755    0.0060675382
N        4.7945095223   -0.5826207496   -1.4186551779
O        2.7373642672   -1.6154741439   -1.4774105099
H        4.0689722946    0.2020968980    2.9661948697
H        4.5126296875    2.6513773757    1.7373801466
H        4.9660940321   -3.2973296212   -2.4691287058
H        5.1641609403   -1.9505358438   -3.6066647409
H        3.6284539796   -2.8599280634   -3.5479078743
H        4.8388489297    2.0404788360   -0.7436452519
H        5.7529958841   -0.7286683098   -1.7199010123
16   
Generated by ForceBalance from scan.xyz: Frame 16 of 24
C        4.3727814465    0.4014511350    1.9539183696
C        4.4087810614    1.6319349512    1.3316511130
C        4.7332583270   -0.0104743443   -0.1205943212
C        3.9109874855   -1.4661081570   -1.8928114068
C        4.4096839856   -2.4511881661   -2.9352110166
N        4.5679405376   -0.6117961085    1.0395496159
N        4.6409980263    1.3521501652   -0.0008754069
N        4.9064783642   -0.6207487038   -1.3813567985
O        2.7471166924   -1.3911310417   -1.5420481416
H        4.2155186200    0.1910860634    3.0037880906
H        4.2989873698    2.6411846012    1.7019582077
H        4.7911084012   -3.3439092465   -2.4271224662
H        5.2152413219   -2.0375417449   -3.5499914611
H        3.5760559737   -2.7471210634   -3.5723966407
H        4.6626919549    2.0088337498   -0.7698515098
H        5.8579895752   -0.9017795535   -1.5967523273
16   
Generated by ForceBalance from scan.xyz: Frame 17 of 24
C        4.4560309265    0.4003861346    1.9671764972
C        4.3244146739    1.6014314426    1.3020978952
C        4.7895208437   -0.0438863367   -0.1052180198
C        3.9440493426   -1.4070300324   -1.9304522484
C        4.3900423535   -2.4408422848   -2.9483017231
N        4.7329771859   -0.6184208595    1.0791787025
N        4.5481956473    1.3012682779   -0.0271823249
N        4.9922538918   -0.6815189989   -1.3482967512
O        2.7760910805   -1.1978192334   -1.6507841512
H        4.3613433703    0.2135033188    3.0289004974
H        4.1027730945    2.6033033069    1.6409547520
H        4.6345479090   -3.3720106090   -2.4251632201
H        5.2743869854   -2.1204177795   -3.5075681560
H        3.5694421979   -2.6386469593   -3.6382787327
H        4.4737176041    1.9269606274   -0.8183939003
H        5.9164984430   -1.0813582450   -1.4751427695
16   
Generated by ForceBalance from scan.xyz: Frame 18 of 24
C        4.5569485576    0.4293985917    1.9850901917
C        4.2608702849    1.5812667773    1.2885695645
C        4.8362979156   -0.0540815825   -0.0863499757
C        3.9799851124   -1.3227616485   -1.9760171610
C        4.3803671511   -2.4138392927   -2.9513283669
N        4.8988286397   -0.5886768893    1.1164549358
N        4.4583708678    1.2584507359   -0.0409507590
N        5.0547806841   -0.7192061911   -1.3113257948
O        2.8254054979   -0.9720733359   -1.7938781577
H        4.5371118815    0.2743228220    3.0558800787
H        3.9412182880    2.5639781002    1.6041454644
H        4.4600255884   -3.3625275296   -2.4088856509
H        5.3432485820   -2.2114918188   -3.4298650859
H        3.6048916011   -2.5158066152   -3.7108660794
H        4.2609390038    1.8357630094   -0.8476662098
H        5.9294292428   -1.2323297919   -1.3481663991
16   
Generated by ForceBalance from scan.xyz: Frame 19 of 24
C        4.6658604763    0.4519162161    2.0007264142
C        4.2069288708    1.5383123531    1.2901281866
C        4.8820464420   -0.0690232337   -0.0688791230
C        4.0259290109   -1.2378354552   -2.0284939771
C        4.3641873368   -2.3959877818   -2.9471615795
N        5.0660935941   -0.5559687341    1.1416761784
N        4.3695009565    1.1953786585   -0.0418013423
N        5.1038029852   -0.7623431602   -1.2752943763
O        2.9158136156   -0.7304887210   -1.9632539356
H        4.7255542825    0.3333613907    3.0746137806
H        3.7958334743    2.4899912180    1.5943432172
H        4.2694088045   -3.3330567417   -2.3871691582
H        5.3845880744   -2.3322577891   -3.3364770244
H        3.6540493715   -2.4154495254   -3.7741885316
H        4.0235237480    1.6970988071   -0.8492993611
H        5.9060833241   -1.3815987277   -1.2258504111
16   
Generated by ForceBalance from scan.xyz: Frame 20 of 24
C        4.7642983152    0.4973937033    1.9969351203
C        4.1538307691    1.4989930944    1.2781326013
C        4.9134734703   -0.0834911869   -0.0605664349
C        4.0844921035   -1.1712719261   -2.0849436479
C        4.3531966851   -2.3838489747   -2.9535018556
N        5.2155016981   -0.5029089818    1.1513670867
N        4.2754600652    1.1214941137   -0.0519424638
N        5.1347969773   -0.8148728147   -1.2411513206
O        3.0449624957   -0.5243686491   -2.1340212427
H        4.9007667822    0.4312415511    3.0682482681
H        3.6651597654    2.4164210679    1.5723780960
H        4.0830775657   -3.2880617369   -2.3966237414
H        5.4056130228   -2.4617709282   -3.2415495022
H        3.7295468477   -2.3295101434   -3.8461235777
H        3.7882564217    1.5112418591   -0.8494683432
H        5.8620860931   -1.5119567032   -1.1193815915
16   
Generated by ForceBalance from scan.xyz: Frame 21 of 24
C        4.8499428186    0.5600141547    2.0017291782
C        4.1252132473    1.4786728669    1.2789786812
C        4.9087663033   -0.1144077816   -0.0297046312
C        4.1235824296   -1.1364619751   -2.1132256237
C        4.3509020783   -2.3564162750   -2.9826053047
N        5.3205432903   -0.4493127658    1.1763849349
N        4.1869457714    1.0414891026   -0.0383788688
N        5.1178173173   -0.8918273534   -1.1785834960
O        3.1503802587   -0.3963342951   -2.2361301888
H        5.0586696641    0.5589313315    3.0633475070
H        3.5929989354    2.3754590850    1.5608726026
H        3.9430477640   -3.2382112420   -2.4759944069
H        5.4122723132   -2.5349478680   -3.1779914127
H        3.8201872688   -2.2253863241   -3.9259407522
H        3.6223714339    1.3395167946   -0.8260406561
H        5.7985543090   -1.6273903050   -1.0226411884
16   
Generated by ForceBalance from scan.xyz: Frame 22 of 24
C        5.0172605266    0.6891148215    1.9814839933
C        4.1370776973    1.4965965099    1.2989552717
C        4.8995438859   -0.1132718556    0.0011852612
C        4.1053083497   -1.1281401271   -2.0896668119
C        4.3290566781   -2.3118399761   -3.0081505041
N        5.4816539109   -0.3289545687    1.1641530244
N        4.0797950438    0.9742533970    0.0128933606
N        5.0635938148   -0.9415114009   -1.1154644593
O        3.1453198025   -0.3668493358   -2.2176373947
H        5.3428380200    0.7745386369    3.0097013949
H        3.5676334180    2.3673586393    1.5893595923
H        3.5887908405   -3.0819862587   -2.7694905500
H        5.3285109020   -2.7460341920   -2.9217678200
H        4.1579858457   -1.9959963391   -4.0393209303
H        3.4373248094    1.1919145018   -0.7418498760
H        5.7579108060   -1.6651271710   -0.9700448523
16   
Generated by ForceBalance from scan.xyz: Frame 23 of 24
C        5.0739429082    0.7724683642    1.9824043644
C        4.1156059648    1.5073844445    1.3228971972
C        4.8389622107   -0.1528705938    0.0677206116
C        4.0986467574   -1.1270605689   -2.0682140716
C        4.3431850743   -2.2793657489   -3.0205789403
N        5.5194554000   -0.2735569230    1.1909537280
N        3.9776803560    0.9012950813    0.0807766518
N        4.9725546324   -1.0304480202   -1.0117384911
O        3.1796525258   -0.3212398348   -2.2355119672
H        5.4695837910    0.9300434632    2.9769514876
H        3.5367126692    2.3748247023    1.6042965551
H        3.5241520869   -2.9977127047   -2.9174281558
H        5.2903002532   -2.7964370207   -2.8460242182
H        4.3216625249   -1.8991747602   -4.0443069577
H        3.3200679758    1.0888933973   -0.6695705792
H        5.6714395853   -1.7484567314   -0.8642241899
16   
Generated by ForceBalance from scan.xyz: Frame 24 of 24
C        5.2164121207    0.9610352858    1.9179753395
C        4.1471123908    1.5937621491    1.3262417122
C        4.8271647704   -0.1108400650    0.1078483364
C        4.0888322651   -1.0853956062   -2.0294578836
C        4.3858668348   -2.1843368418   -3.0287501847
N        5.6394339073   -0.1090938920    1.1472173072
N        3.9051206430    0.8893438093    0.1541454183
N        4.9088833678   -1.0423446548   -0.9295253672
O        3.1733866362   -0.2750649663   -2.1998156712
H        5.7075887986    1.2091400598    2.8494589844
H        3.5513612358    2.4474154516    1.6144545521
H        3.4621895825   -2.7325737178   -3.2292429143
H        5.1555902838   -2.8848186921   -2.6945463336
H        4.7071714673   -1.7256412227   -3.9684049627
H        3.2041301477    1.0312489773   -0.5665658157
H        5.6515956224   -1.7208481386   -0.8150686314
