29   

C        1.8051206444    4.7066102800   -3.2802511288
C        1.9096610209    5.2524715588   -1.9990988556
C        1.1981848624    3.4612504009   -3.4547638278
C        1.4218091310    4.5473492974   -0.8928424842
C        0.7108744458    2.7569255671   -2.3481323275
C        0.8485549361    3.2749993255   -1.0405837177
C        0.2759675730    2.6257793909    0.1917838203
C       -0.6919813204   -1.5255706698   -0.0005339411
C        0.2354428610   -0.8698679476   -1.0321678122
C       -1.6710176446   -0.4827447807    0.5525881645
C        0.9697187079    0.3191612426   -0.4044040783
C       -0.9171524582    0.7123827478    1.1428512590
N       -0.0019222566    1.2700659541    0.1449486554
O       -0.0859417425    3.3083954704    1.1443454259
H        2.1786870869    5.2556656671   -4.1374146875
H        2.3610584000    6.2284113962   -1.8600494365
H        1.0895792587    3.0474590426   -4.4510166981
H        1.4934011155    4.9961226865    0.0931340377
H        0.1973758574    1.8186594269   -2.5206463238
H       -0.0945175733   -1.9376890367    0.8198947533
H       -1.2453343515   -2.3491883894   -0.4629195314
H       -0.3564528856   -0.5247059512   -1.8860013711
H        0.9616499504   -1.6025994492   -1.3974802118
H       -2.3062275799   -0.9339893962    1.3212391378
H       -2.3190823093   -0.1310846128   -0.2567540240
H        1.6386084584    0.7716248819   -1.1402217133
H        1.6067501899   -0.0439152042    0.4093670230
H       -1.6476902503    1.4606478779    1.4695507054
H       -0.3473252793    0.3961146288    2.0231833075
29   

C        1.8785066701    4.6475297118   -3.2837347661
C        2.0457686137    5.1570747327   -1.9934324644
C        1.1336002954    3.4817484454   -3.4782390064
C        1.4788441244    4.4951837114   -0.8980696840
C        0.5677938563    2.8210303649   -2.3822097831
C        0.7577989427    3.3052174171   -1.0702888146
C        0.1226482582    2.6820841782    0.1431417382
C       -0.6061604055   -1.5052702066   -0.0002303323
C        0.2652287432   -0.8015331042   -1.0491306682
C       -1.6089878428   -0.5085641600    0.5939221085
C        0.9714332735    0.4083331012   -0.4293112014
C       -0.8855939553    0.7065817747    1.1815929319
N       -0.0206725747    1.3103150615    0.1654569471
O       -0.3378720998    3.3865275011    1.0344765802
H        2.3137287096    5.1634295839   -4.1323734008
H        2.6077411893    6.0714239354   -1.8394751818
H        0.9829283603    3.0962899740   -4.4803704413
H        1.5977047772    4.9105072626    0.0978566008
H       -0.0388074300    1.9392302286   -2.5549294272
H        0.0298652178   -1.9036707048    0.7976476551
H       -1.1401423047   -2.3441832637   -0.4578904391
H       -0.3640357774   -0.4696230033   -1.8811984938
H        1.0081976217   -1.5010041229   -1.4446997688
H       -2.2056561497   -0.9944212485    1.3722803346
H       -2.2918087788   -0.1712227997   -0.1927056486
H        1.5967563460    0.8932690908   -1.1821716458
H        1.6494805854    0.0623560634    0.3582635772
H       -1.6363656869    1.4186165238    1.5413644791
H       -0.2792519044    0.4007755772    2.0408094197
29   

C        1.9172399312    4.5730254956   -3.2657274886
C        2.1254312337    5.0364172960   -1.9633480213
C        1.0663817454    3.4870298853   -3.4895604080
C        1.4897237337    4.4093908162   -0.8852766184
C        0.4321370708    2.8611201475   -2.4107181947
C        0.6528598945    3.3047590175   -1.0913114293
C       -0.0369390100    2.6934606582    0.0982890449
C       -0.5404258919   -1.5007786137    0.0025933694
C        0.2877766053   -0.7544773114   -1.0523567881
C       -1.5560378753   -0.5437352904    0.6396234730
C        0.9740739442    0.4646214270   -0.4284130422
C       -0.8519476589    0.6791390420    1.2351648525
N       -0.0318494650    1.3230502510    0.2065025505
O       -0.6073366284    3.4035323995    0.9178396638
H        2.4061313101    5.0621673033   -4.1008931702
H        2.7734417869    5.8876475049   -1.7871452342
H        0.8901651258    3.1358380908   -4.5000902680
H        1.6407350666    4.7847922451    0.1218931784
H       -0.2449564124    2.0343787913   -2.5954990607
H        0.1243656277   -1.8966962326    0.7778869116
H       -1.0620533448   -2.3452384502   -0.4591264749
H       -0.3690122602   -0.4258218568   -1.8642239168
H        1.0406266375   -1.4257623596   -1.4770147245
H       -2.1211063013   -1.0611781721    1.4211656156
H       -2.2660948673   -0.2099496787   -0.1241932663
H        1.5648692653    0.9792847662   -1.1893447050
H        1.6823407135    0.1271972757    0.3358426048
H       -1.6124371821    1.3600273406    1.6323536848
H       -0.2140933922    0.3734447834    2.0711227187
29   

C        1.9537011259    4.5060376215   -3.2911412381
C        2.2165417429    4.9180633788   -1.9810840239
C        1.0036862190    3.5085578591   -3.5293624521
C        1.5329467946    4.3300876313   -0.9102712197
C        0.3221689649    2.9216765969   -2.4574199918
C        0.5885659209    3.3207272298   -1.1339230950
C       -0.1414099641    2.7241810341    0.0409898917
C       -0.4752301599   -1.4453247180    0.0314757174
C        0.3247744772   -0.6782320288   -1.0309009323
C       -1.4862185919   -0.5070758436    0.7042560552
C        1.0098093455    0.5425338883   -0.4087689696
C       -0.7804060778    0.7150729548    1.2999770970
N        0.0032020765    1.3776856913    0.2551823682
O       -0.8203367611    3.4309231963    0.7753825477
H        2.4795870795    4.9653050394   -4.1207856269
H        2.9450483753    5.6988929708   -1.7935987073
H        0.7894625717    3.1950395032   -4.5449352871
H        1.7285622079    4.6627544031    0.1039778961
H       -0.4242266571    2.1580471563   -2.6475310393
H        0.2094098001   -1.8454881541    0.7869886980
H       -0.9987051849   -2.2884453519   -0.4306472669
H       -0.3513426451   -0.3477351554   -1.8260544444
H        1.0761863741   -1.3363719038   -1.4780877962
H       -2.0281518960   -1.0408928394    1.4911021327
H       -2.2169555102   -0.1704954064   -0.0386719531
H        1.5748692308    1.0726117123   -1.1790503132
H        1.7400501629    0.2089324328    0.3361546438
H       -1.5351742991    1.3810821665    1.7313766513
H       -0.1157168577    0.4048395986    2.1129002931
29   

C        1.9895101538    4.4306552433   -3.3297756866
C        2.2932144875    4.7752297667   -2.0090594049
C        0.9579340276    3.5244611334   -3.5926019302
C        1.5668771688    4.2125830212   -0.9528467427
C        0.2343285306    2.9629146327   -2.5347440134
C        0.5360635878    3.2990662160   -1.2029874935
C       -0.2392574638    2.7103111832   -0.0512225979
C       -0.4120251804   -1.4090489061    0.0438555286
C        0.3943543951   -0.6292086976   -1.0051472730
C       -1.4336586107   -0.4830381139    0.7191635542
C        1.0637227367    0.5939140686   -0.3700207386
C       -0.7383163654    0.7391762621    1.3275495387
N        0.0382313131    1.4124189910    0.2849942795
O       -1.0519185519    3.3874353968    0.5650786016
H        2.5481653169    4.8707050977   -4.1483489503
H        3.0872392914    5.4839746111   -1.8022261017
H        0.7139075913    3.2618392042   -4.6158648846
H        1.7970259160    4.4911850851    0.0701730716
H       -0.5720980270    2.2676187231   -2.7415075282
H        0.2685579243   -1.8130280662    0.8009016732
H       -0.9273694488   -2.2505030716   -0.4303488328
H       -0.2759449488   -0.2983815218   -1.8052313549
H        1.1548297997   -1.2789946636   -1.4491865257
H       -1.9756639680   -1.0270809678    1.4988724703
H       -2.1632455140   -0.1454015846   -0.0245514819
H        1.6282664762    1.1341137314   -1.1342831179
H        1.7909608426    0.2659117562    0.3802099544
H       -1.4945078923    1.3969344488    1.7688061246
H       -0.0699014213    0.4269169856    2.1365379250
29   

C        1.9597772954    4.4102607728   -3.3030147183
C        2.3244892439    4.6304121544   -1.9713058620
C        0.8475311990    3.6161168960   -3.5969084495
C        1.5784828776    4.0548856240   -0.9359369287
C        0.1047950872    3.0418473957   -2.5593021958
C        0.4674564300    3.2511289130   -1.2180446058
C       -0.3382812286    2.6448241007   -0.0958331504
C       -0.3290287220   -1.4195522640    0.0978552773
C        0.4854035023   -0.6210901997   -0.9315010184
C       -1.3826360757   -0.5166780319    0.7561661855
C        1.1142717640    0.6164796234   -0.2818338735
C       -0.7228576611    0.7185157970    1.3777610086
N        0.0518520592    1.4085301857    0.3454717757
O       -1.2834748360    3.2495576852    0.3933961650
H        2.5335601685    4.8603121182   -4.1055309891
H        3.1814626749    5.2529388314   -1.7397171124
H        0.5555868031    3.4506388722   -4.6279159325
H        1.8581498190    4.2372872563    0.0962021420
H       -0.7646167170    2.4350469202   -2.7887204341
H        0.3432409489   -1.8133213884    0.8675129078
H       -0.8180013422   -2.2690393000   -0.3898188241
H       -0.1735070836   -0.3032141002   -1.7463886477
H        1.2688113472   -1.2542658551   -1.3593000587
H       -1.9267056121   -1.0734409831    1.5253553294
H       -2.1060483577   -0.1927859876    0.0002880112
H        1.6808799524    1.1698133591   -1.0354471869
H        1.8321242560    0.3069739903    0.4850162204
H       -1.4954252759    1.3612945324    1.8127681216
H       -0.0581408329    0.4184864397    2.1943469796
29   

C        2.0135250891    4.4404953999   -3.3394679820
C        2.4312120411    4.4847824474   -2.0060940206
C        0.8140040129    3.8041161582   -3.6706064036
C        1.6517733947    3.8891113771   -1.0073823749
C        0.0384203915    3.2094867144   -2.6691508037
C        0.4557238615    3.2344389562   -1.3281257146
C       -0.4009551480    2.6217430880   -0.2491176929
C       -0.2782338842   -1.3978583884    0.1726478515
C        0.5546522995   -0.6283944717   -0.8638864468
C       -1.3707389347   -0.4891308337    0.7545095408
C        1.1374273143    0.6514736880   -0.2531819246
C       -0.7542775387    0.7849499878    1.3401308006
N        0.0389815591    1.4471841895    0.3035105214
O       -1.4451508611    3.1586371493    0.0978314790
H        2.6131471771    4.9064143774   -4.1135251972
H        3.3553259478    4.9878347663   -1.7443381007
H        0.4791102715    3.7780503623   -4.7015084792
H        1.9737848099    3.9386786056    0.0272551753
H       -0.9006988148    2.7304402370   -2.9253831384
H        0.3751075256   -1.7432743250    0.9808096548
H       -0.7340286217   -2.2778704642   -0.2925520958
H       -0.0833929228   -0.3615037308   -1.7131060796
H        1.3638047595   -1.2632979291   -1.2377535306
H       -1.9291321843   -1.0220617725    1.5302721772
H       -2.0748465428   -0.2137455821   -0.0380131565
H        1.7109762890    1.1804217426   -1.0186689817
H        1.8392157438    0.3949391135    0.5472899723
H       -1.5502517235    1.4312940739    1.7249077834
H       -0.1095092493    0.5337858948    2.1885642284
29   

C        2.0040083880    4.4822118031   -3.3445073841
C        2.4607587487    4.3647141280   -2.0288674958
C        0.7514345937    3.9697173879   -3.6920728693
C        1.6678471408    3.7296541807   -1.0656286703
C       -0.0370660768    3.3353865482   -2.7257712673
C        0.4186642098    3.1916231022   -1.4044098548
C       -0.4615813800    2.5462008064   -0.3670669440
C       -0.2496558657   -1.3958368370    0.2697925177
C        0.5921111715   -0.6574382461   -0.7817113074
C       -1.3544046401   -0.4743415146    0.8062029370
C        1.1566786412    0.6500639115   -0.2127208169
C       -0.7504331214    0.8229961474    1.3527201900
N        0.0449420713    1.4570684856    0.3002046945
O       -1.5792019204    2.9909107500   -0.1361992038
H        2.6141984071    4.9785534527   -4.0908928814
H        3.4260674033    4.7737564939   -1.7524432519
H        0.3850990233    4.0707588488   -4.7075449032
H        2.0224244329    3.6585765117   -0.0429619408
H       -1.0177488431    2.9554378893   -2.9931107527
H        0.3951369206   -1.7093363692    1.0975044764
H       -0.6944879819   -2.2939540745   -0.1708503202
H       -0.0364483261   -0.4275116734   -1.6487243352
H        1.4109650380   -1.2989279684   -1.1216793690
H       -1.9186230139   -0.9829541630    1.5939221243
H       -2.0511142018   -0.2312328777   -0.0033953727
H        1.7303188167    1.1521759285   -0.9953686961
H        1.8531196114    0.4317310695    0.6035822026
H       -1.5513332523    1.4789298322    1.7104703965
H       -0.1102697542    0.6047893231    2.2136214805
29   

C        1.9521005088    4.5616861575   -3.2966213545
C        2.4479146003    4.2845372942   -2.0202562930
C        0.6635383250    4.1491821538   -3.6430020538
C        1.6581560684    3.5898808287   -1.0962458673
C       -0.1211851609    3.4548727566   -2.7158442949
C        0.3702120281    3.1489363833   -1.4342014986
C       -0.5136245038    2.4340216378   -0.4489236937
C       -0.2068810499   -1.4248392287    0.4093640799
C        0.6235584871   -0.7225146242   -0.6741454494
C       -1.3228122533   -0.4943622075    0.9040911734
C        1.1701530393    0.6178452000   -0.1674015013
C       -0.7339402601    0.8331129292    1.3926501998
N        0.0519997049    1.4359654201    0.3146187933
O       -1.6806570074    2.7777467246   -0.3024802410
H        2.5601021385    5.1039065810   -4.0122317270
H        3.4419675504    4.6165167344   -1.7424524242
H        0.2664317761    4.3729925768   -4.6267773313
H        2.0482662273    3.4027629761   -0.1016264549
H       -1.1284039869    3.1515824238   -2.9834167692
H        0.4422036781   -1.6929678461    1.2494984294
H       -0.6401010383   -2.3470676314    0.0086919458
H       -0.0091388010   -0.5410965260   -1.5496564624
H        1.4510919063   -1.3668126925   -0.9867783786
H       -1.8813703181   -0.9746049926    1.7132815214
H       -2.0220841520   -0.2958795709    0.0844593150
H        1.7270108805    1.0877582142   -0.9810266831
H        1.8764607285    0.4484541851    0.6520649500
H       -1.5417754715    1.4951517146    1.7228642392
H       -0.0907665924    0.6598978698    2.2614434001
29   

C        1.9576463906    4.6534298603   -3.3048720561
C        2.4834970683    4.2306642504   -2.0824019401
C        0.6397872661    4.3349424936   -3.6362529602
C        1.6946936394    3.4849490725   -1.1979881731
C       -0.1435967588    3.5894598317   -2.7488455734
C        0.3730958681    3.1380447618   -1.5192833069
C       -0.5151527882    2.3495080386   -0.5965922448
C       -0.1957488075   -1.4182318715    0.4911358702
C        0.6390707367   -0.7725137452   -0.6224433828
C       -1.3094755563   -0.4601243318    0.9335647114
C        1.1886042450    0.5897314385   -0.1819592543
C       -0.7168887781    0.8878905670    1.3592039191
N        0.0777577817    1.4404006854    0.2603439713
O       -1.7123183811    2.6048755969   -0.5290673721
H        2.5656340868    5.2342020691   -3.9895702248
H        3.5016998859    4.4892175448   -1.8142187949
H        0.2193003005    4.6686838326   -4.5782812846
H        2.1177865584    3.1954385186   -0.2425229929
H       -1.1708828396    3.3555515241   -3.0104239779
H        0.4496022025   -1.6466074860    1.3457054084
H       -0.6308194351   -2.3574778148    0.1343260109
H        0.0087217161   -0.6326945544   -1.5072664798
H        1.4653800668   -1.4335658351   -0.9016496780
H       -1.8743847715   -0.8977458448    1.7622061500
H       -2.0038922816   -0.2999655602    0.1014176990
H        1.7402651996    1.0144011453   -1.0234637508
H        1.8982357094    0.4596605371    0.6418433941
H       -1.5235426664    1.5693648758    1.6508515395
H       -0.0802228632    0.7545647189    2.2396939143
29   

C        1.9379973889    4.7666758446   -3.2793098975
C        2.4990912795    4.2038499716   -2.1323677153
C        0.5950902924    4.5326140368   -3.5737649729
C        1.7207565962    3.4034737907   -1.2870287281
C       -0.1775001732    3.7324539096   -2.7257228765
C        0.3695258337    3.1418234348   -1.5677926079
C       -0.5160935644    2.2740913200   -0.7136222254
C       -0.2138865334   -1.4025496476    0.6069669874
C        0.6336745642   -0.8211195246   -0.5307168505
C       -1.3294995976   -0.4182114055    0.9791074025
C        1.1836103527    0.5613725725   -0.1601432684
C       -0.7380475354    0.9501018900    1.3384938713
N        0.0788736466    1.4458954107    0.2283664508
O       -1.7305408495    2.4451667411   -0.7227452563
H        2.5386706121    5.3885455943   -3.9336937456
H        3.5385421152    4.3956097592   -1.8909667476
H        0.1469391070    4.9712386494   -4.4582902860
H        2.1843813612    3.0175304062   -0.3869456132
H       -1.2218099787    3.5614093725   -2.9682212005
H        0.4206492123   -1.5838307930    1.4806675760
H       -0.6472578981   -2.3592275273    0.2974815086
H        0.0123017608   -0.7279427883   -1.4279720433
H        1.4604654904   -1.4985655166   -0.7658159968
H       -1.9085308192   -0.8076519291    1.8218593954
H       -2.0110033207   -0.3030744732    0.1289932876
H        1.7361480903    0.9360378263   -1.0247369114
H        1.8907469026    0.4741947684    0.6714586548
H       -1.5473665990    1.6491445406    1.5764494350
H       -0.1186220789    0.8636983801    2.2369005480
29   

C        1.8843185312    4.6142154294   -3.5347708664
C        2.1087695311    3.2655955769   -3.2594411194
C        0.8792088997    5.2956693874   -2.8508189380
C        1.3349775302    2.6027751988   -2.2986016715
C        0.1092922555    4.6286180059   -1.8925891672
C        0.3195241318    3.2657482849   -1.5883655174
C       -0.5218261705    2.6362666259   -0.5067391755
C        0.1629154707   -1.4314044018    0.6245739230
C        1.2845709779   -0.5652015320    0.0355369532
C       -1.1946183848   -0.9627525985    0.0853273270
C        1.0245151442    0.9123480402    0.3452778544
C       -1.4061411651    0.5279926038    0.3652738049
N       -0.2880606062    1.3022504040   -0.1759871354
O       -1.5363827478    3.1995280488   -0.1091451079
H        2.4821433257    5.1281744476   -4.2792056991
H        2.8799011642    2.7270020148   -3.7986701188
H        0.6926410535    6.3432892437   -3.0589110504
H        1.5230570413    1.5468213827   -2.1553996230
H       -0.6644555857    5.1810383739   -1.3684173680
H        0.1708550503   -1.3457133325    1.7166235502
H        0.3248412181   -2.4829851666    0.3671493843
H        1.3270745185   -0.7101697350   -1.0488657253
H        2.2479180335   -0.8688157541    0.4568229735
H       -2.0015593345   -1.5423856144    0.5444968154
H       -1.2309439828   -1.1306848246   -0.9958549186
H        1.8350641117    1.5289504451   -0.0507435446
H        1.0319010684    1.0558294130    1.4312902942
H       -2.3527840354    0.8435128351   -0.0871625608
H       -1.4788596226    0.6978252365    1.4451073008
29   

C        1.9442742444    4.5898246603   -3.4600800960
C        2.0409938637    3.2070856920   -3.2987275998
C        1.0114462036    5.3063180918   -2.7105669085
C        1.2120727534    2.5446799675   -2.3850198052
C        0.1859783328    4.6394972647   -1.7992903287
C        0.2739641300    3.2451463553   -1.6088681681
C       -0.6309372608    2.5946446853   -0.5969014588
C        0.2316534299   -1.3936548705    0.6690270383
C        1.3069856914   -0.5094070345    0.0239000487
C       -1.1534603477   -0.9865412811    0.1514990083
C        1.0102455599    0.9684911540    0.2974626677
C       -1.4113017359    0.5022112418    0.4007206021
N       -0.3338071959    1.3029228027   -0.1837076268
O       -1.6967377193    3.1201320296   -0.2940698379
H        2.5837520837    5.1038560932   -4.1690115373
H        2.7537376041    2.6436080093   -3.8903256434
H        0.9226490259    6.3798673841   -2.8339366599
H        1.2919358060    1.4664752249   -2.3181028135
H       -0.5366813471    5.2109094281   -1.2249448281
H        0.2645686991   -1.2749469842    1.7574934951
H        0.4224112053   -2.4464983935    0.4377940250
H        1.3232910738   -0.6854225643   -1.0565236386
H        2.2914863125   -0.7699978407    0.4246102835
H       -1.9285530012   -1.5823434219    0.6436421591
H       -1.2090066439   -1.1827973811   -0.9241427156
H        1.7880725224    1.5925172656   -0.1489609035
H        1.0535665339    1.1471948401    1.3773283752
H       -2.3796433972    0.7697128557   -0.0364847489
H       -1.4663516527    0.6958928056    1.4774492555
29   

C        2.0244840649    4.5798107909   -3.3812281470
C        2.0125693378    3.1844462119   -3.3307030459
C        1.1474853807    5.3070738203   -2.5749305689
C        1.1307516261    2.5196872818   -2.4700307991
C        0.2688269938    4.6376424677   -1.7165234817
C        0.2538436721    3.2319678160   -1.6370129072
C       -0.7185122337    2.5597071338   -0.7068303022
C        0.2716494361   -1.3418499215    0.6906428336
C        1.3120286398   -0.4458228614    0.0056055866
C       -1.1333755006   -0.9749619561    0.1974735421
C        0.9914271380    1.0304986820    0.2595241451
C       -1.4215055231    0.5107251344    0.4314661474
N       -0.3741550529    1.3262138034   -0.1870526446
O       -1.8289454757    3.0432419854   -0.5179183970
H        2.7038814919    5.0964055843   -4.0500355941
H        2.6807662940    2.6151586239   -3.9670413426
H        1.1415277864    6.3905290328   -2.6161676742
H        1.1198178718    1.4357149670   -2.4744723862
H       -0.4172481482    5.2112557040   -1.1011347587
H        0.3260529861   -1.2034290311    1.7758938805
H        0.4809358546   -2.3940634122    0.4729258819
H        1.3068639752   -0.6403972142   -1.0717031051
H        2.3111853922   -0.6784052234    0.3868196359
H       -1.8835167656   -1.5817730370    0.7141929522
H       -1.2070378557   -1.1881938944   -0.8739074824
H        1.7449219037    1.6583802357   -0.2213232202
H        1.0620733849    1.2319788483    1.3338576986
H       -2.4062908248    0.7457607968    0.0129042389
H       -1.4582613921    0.7190617710    1.5060889587
29   

C        2.0564012581    4.5566339614   -3.2888234105
C        1.9736799385    3.1633323610   -3.3478491823
C        1.2162803887    5.2636434415   -2.4257977266
C        1.0575696644    2.4799349764   -2.5394217527
C        0.3030668315    4.5754846914   -1.6195345815
C        0.2217359212    3.1717670371   -1.6503990003
C       -0.7972227827    2.4656673114   -0.7978951973
C        0.3209098399   -1.3298211965    0.7169881123
C        1.3227452444   -0.4144035551    0.0002409383
C       -1.1056514225   -0.9947936174    0.2637466609
C        0.9794812396    1.0563791075    0.2561080522
C       -1.4196904640    0.4847863425    0.5041899194
N       -0.4063923041    1.3168197263   -0.1485420159
O       -1.9472910157    2.8832124408   -0.7330832072
H        2.7615975158    5.0884341172   -3.9178322426
H        2.6129351835    2.6119024693   -4.0281380269
H        1.2644130563    6.3460597721   -2.3850085815
H        0.9877470807    1.4004322704   -2.6159899830
H       -0.3598671108    5.1305129638   -0.9633832366
H        0.4032663347   -1.1870578172    1.7998758226
H        0.5463173965   -2.3780116513    0.4959199783
H        1.2915475367   -0.6133403665   -1.0758333554
H        2.3369525770   -0.6244314837    0.3538155548
H       -1.8270743654   -1.6172471904    0.8022441958
H       -1.2053104953   -1.2117028411   -0.8048789620
H        1.7055672520    1.6942998600   -0.2527010969
H        1.0795307344    1.2677813941    1.3261228776
H       -2.4232635903    0.6949506227    0.1187788806
H       -1.4271768029    0.6956648714    1.5787621607
29   

C        2.0989316774    4.5257174419   -3.2484933722
C        1.9387698527    3.1466006363   -3.4083241628
C        1.3076762292    5.2131369240   -2.3245288480
C        0.9933970629    2.4570590410   -2.6399486660
C        0.3647505486    4.5191037595   -1.5582296259
C        0.2081405226    3.1291489630   -1.6930707911
C       -0.8442122980    2.4050396348   -0.8950834800
C        0.3295492002   -1.2700578667    0.7522141749
C        1.3086397386   -0.3506990001    0.0088018721
C       -1.1112546311   -0.9421217325    0.3387142401
C        0.9655331302    1.1194885770    0.2679707766
C       -1.4251248748    0.5364030827    0.5877343659
N       -0.4330125161    1.3659064177   -0.0996549513
O       -2.0180247530    2.7482640736   -0.9600329307
H        2.8264993174    5.0627928426   -3.8468024585
H        2.5406056839    2.6123075456   -4.1348620071
H        1.4163647365    6.2854805301   -2.2067730603
H        0.8620886771    1.3902344952   -2.7851372958
H       -0.2626422105    5.0582610608   -0.8558907013
H        0.4406934803   -1.1266873750    1.8323936873
H        0.5538050029   -2.3172720773    0.5253316566
H        1.2510466065   -0.5520352901   -1.0657832999
H        2.3326905493   -0.5548950565    0.3364939453
H       -1.8140964092   -1.5681385702    0.8971990451
H       -1.2398854318   -1.1599779574   -0.7267257168
H        1.6736084470    1.7562747833   -0.2675344184
H        1.0950452404    1.3397051791    1.3329720886
H       -2.4426779827    0.7421072526    0.2388650345
H       -1.3976837390    0.7496201616    1.6613816000
29   

C        2.1036034789    4.4907733009   -3.2036389341
C        1.8690554560    3.1392552739   -3.4732407663
C        1.3690993197    5.1375501366   -2.2057245362
C        0.9046654996    2.4360098669   -2.7418843754
C        0.4066563591    4.4304539168   -1.4763495937
C        0.1739387177    3.0681984938   -1.7274923633
C       -0.8892720635    2.3177926723   -0.9654632325
C        0.3475985859   -1.2116570080    0.7975669275
C        1.3039807917   -0.2719113249    0.0488844529
C       -1.1053913140   -0.9003440537    0.4119658118
C        0.9428593991    1.1920037055    0.3203683369
C       -1.4329053531    0.5727699831    0.6766046005
N       -0.4638988048    1.4114957359   -0.0312514368
O       -2.0758168726    2.5442619315   -1.1645129457
H        2.8460576973    5.0386112347   -3.7732251579
H        2.4284885771    2.6377340850   -4.2549435059
H        1.5378078744    6.1890022370   -2.0017940123
H        0.7163549355    1.3914459744   -2.9654915435
H       -0.1748931754    4.9382276687   -0.7140697946
H        0.4742857110   -1.0773276979    1.8771256730
H        0.5825434489   -2.2534819417    0.5569735177
H        1.2357063638   -0.4666411713   -1.0264084502
H        2.3351502806   -0.4631848824    0.3616727716
H       -1.7894907693   -1.5393407543    0.9788820930
H       -1.2508108955   -1.1129323810   -0.6524800048
H        1.6330724086    1.8407382209   -0.2249542517
H        1.0826433039    1.4127203930    1.3838939895
H       -2.4613763112    0.7713786758    0.3572397532
H       -1.3812274091    0.7818362142    1.7500894620
29   

C        2.0565432593    4.4477697327   -3.1558478995
C        1.7403815330    3.1434432630   -3.5480786262
C        1.4013648487    5.0234812590   -2.0632459598
C        0.7716494046    2.4161648933   -2.8466074454
C        0.4342731620    4.2931011982   -1.3634901967
C        0.1149901674    2.9794732965   -1.7455068607
C       -0.9363997098    2.1890865916   -1.0064844303
C        0.3889961235   -1.1655493970    0.8993529237
C        1.3185122217   -0.1964907754    0.1530971477
C       -1.0725165130   -0.9068261628    0.5051820961
C        0.9037616930    1.2563945553    0.4095583609
C       -1.4487485314    0.5570716972    0.7558126433
N       -0.5057580655    1.4164723704    0.0385988742
O       -2.1141816092    2.2558902017   -1.3332673203
H        2.8025351729    5.0141659966   -3.7021946696
H        2.2405120131    2.6973160800   -4.4003703944
H        1.6367132801    6.0380865140   -1.7619247084
H        0.5210156547    1.4085130830   -3.1606234230
H       -0.0814613866    4.7453651060   -0.5231287793
H        0.5046202508   -1.0223669886    1.9789510879
H        0.6610825071   -2.1997544326    0.6649942507
H        1.2667158465   -0.4004606781   -0.9215753387
H        2.3530589894   -0.3494210892    0.4755757836
H       -1.7371141884   -1.5634308687    1.0751265179
H       -1.2067845310   -1.1330403658   -0.5579926746
H        1.5752066615    1.9236297627   -0.1373218455
H        1.0242860622    1.4928238988    1.4719908208
H       -2.4832770828    0.7235527643    0.4375929118
H       -1.4028602041    0.7785044925    1.8270498920
29   

C        2.0604682640    4.4440660118   -3.1556838830
C        1.6625142493    3.2037612169   -3.6644149009
C        1.4914382109    4.9263204000   -1.9730891103
C        0.6971699379    2.4466717833   -2.9903364219
C        0.5275368991    4.1668968634   -1.3003994780
C        0.1238952267    2.9175151631   -1.8028996571
C       -0.9153942193    2.0836017344   -1.0971213059
C        0.4074764286   -1.1131111810    0.9826496364
C        1.3377818354   -0.1361127305    0.2473896951
C       -1.0472610337   -0.8944929508    0.5417378603
C        0.8830218295    1.3125725435    0.4596728788
C       -1.4592264608    0.5658731422    0.7525169037
N       -0.5168262311    1.4292583557    0.0394896749
O       -2.0533740469    1.9966209980   -1.5402632755
H        2.8040046053    5.0333756323   -3.6807283250
H        2.0966597326    2.8304489872   -4.5851319282
H        1.7921009314    5.8911910455   -1.5803672457
H        0.3823072423    1.4896073954   -3.3928800826
H        0.0812216940    4.5464875498   -0.3875581632
H        0.4876956265   -0.9488863788    2.0624054942
H        0.7090673629   -2.1448308435    0.7748390849
H        1.3246252611   -0.3622190774   -0.8241456865
H        2.3649227386   -0.2590892184    0.6044185845
H       -1.7140557377   -1.5537990417    1.1059275142
H       -1.1466709728   -1.1440300623   -0.5201358417
H        1.5563635981    1.9803891535   -0.0837085518
H        0.9649184656    1.5758974128    1.5194071625
H       -2.4890461307    0.7078638417    0.4079665904
H       -1.4433670638    0.8100412478    1.8196503483
29   

C        1.8501897272    4.4523177539   -3.1940649159
C        0.5185084141    4.5714005728   -2.7843846949
C        2.7419277872    3.6775823334   -2.4462204852
C        0.0784906654    3.9138730771   -1.6296048420
C        2.2998976626    3.0201640577   -1.2926818601
C        0.9593508783    3.1269401888   -0.8775414477
C        0.4508480617    2.4438189795    0.3644946993
C       -1.2071235562   -1.1875491172    0.0749889971
C       -0.6637623924   -0.4025451047   -1.1283789559
C       -1.2896911587   -0.2768346563    1.3084493864
C        0.6866001743    0.2437799780   -0.7960667688
C        0.0739901792    0.3585587548    1.5973271603
N        0.5268349420    1.0730192780    0.4028019599
O       -0.0086164916    3.0988398374    1.2918126893
H        2.1919865223    4.9659468128   -4.0857790315
H       -0.1732688414    5.1788973154   -3.3570553856
H        3.7773437749    3.5915393325   -2.7562218414
H       -0.9522153333    4.0187936042   -1.3066937885
H        2.9970010304    2.4288166587   -0.7088144683
H       -0.5417327769   -2.0302525826    0.2900832402
H       -2.1980486489   -1.5905166290   -0.1581031278
H       -1.3784431384    0.3821952657   -1.3986680051
H       -0.5549273107   -1.0685512808   -1.9898922084
H       -1.6243474424   -0.8510408113    2.1778334849
H       -2.0226314402    0.5167227155    1.1268312482
H        1.0296778219    0.8049241643   -1.6684165215
H        1.4340397768   -0.5327247664   -0.6025840270
H       -0.0066014392    1.0223412148    2.4648120792
H        0.8014662706   -0.4171675765    1.8573480287
29   

C        1.8805570168    4.5310245715   -3.1485633468
C        0.5728832468    4.7477751104   -2.7042229717
C        2.7026552599    3.6234655380   -2.4746109539
C        0.0856306654    4.0526737700   -1.5912064941
C        2.2138517601    2.9287579629   -1.3625737760
C        0.8909203757    3.1245347830   -0.9182011646
C        0.3294387656    2.4302020805    0.2927165648
C       -1.1410842967   -1.2576489962    0.1695988994
C       -0.6365682543   -0.4990187235   -1.0663265256
C       -1.2405196810   -0.3054158243    1.3694709115
C        0.6941515924    0.2054095492   -0.7746734452
C        0.1058254697    0.3820416254    1.6189260537
N        0.5249391812    1.0711664282    0.3972186980
O       -0.2424110529    3.0717047729    1.1662309980
H        2.2590076462    5.0734071601   -4.0078508056
H       -0.0634291014    5.4606594847   -3.2165263079
H        3.7219850890    3.4645383031   -2.8081974367
H       -0.9246839291    4.2370769201   -1.2399558289
H        2.8644342007    2.2414366776   -0.8326741933
H       -0.4463622773   -2.0700749538    0.4070406211
H       -2.1207955733   -1.7001732529   -0.0378768600
H       -1.3807339606    0.2507293868   -1.3558404258
H       -0.5144789992   -1.1911404002   -1.9052072090
H       -1.5482500743   -0.8574268435    2.2627889843
H       -2.0001205596    0.4576490061    1.1673121951
H        0.9973919723    0.7491049170   -1.6720248500
H        1.4729164765   -0.5364003945   -0.5689436150
H        0.0154310918    1.0733986634    2.4637429658
H        0.8599368932   -0.3613423455    1.8967665499
29   

C        1.9376486380    4.6024069825   -3.1052351157
C        0.6597675523    4.9009774129   -2.6250768969
C        2.6759790019    3.5711129681   -2.5192808028
C        0.1165237223    4.1620165922   -1.5677071882
C        2.1315712830    2.8326788736   -1.4626269588
C        0.8294446242    3.1020724471   -0.9897505518
C        0.2101696836    2.3915637721    0.1829030555
C       -1.0915162973   -1.3332907758    0.2658950104
C       -0.6327226826   -0.6143944188   -1.0099512448
C       -1.2015979409   -0.3310598932    1.4227152200
C        0.6790314920    0.1445738131   -0.7749349881
C        0.1271629958    0.4071266612    1.6179648815
N        0.5103726477    1.0558023403    0.3624348831
O       -0.4541174585    3.0147648605    1.0035893122
H        2.3597915926    5.1785649787   -3.9210772446
H        0.0901328702    5.7117577981   -3.0651883761
H        3.6762072275    3.3514674450   -2.8754473516
H       -0.8689812239    4.4146807579   -1.1889677801
H        2.7314060590    2.0592522233   -0.9957703340
H       -0.3673120940   -2.1121503882    0.5264132817
H       -2.0600110301   -1.8146205776    0.0953108513
H       -1.4059018626    0.0979357095   -1.3174576363
H       -0.5030074866   -1.3379588262   -1.8207169917
H       -1.4786384942   -0.8507037362    2.3449657075
H       -1.9875944562    0.3986623559    1.1991129187
H        0.9382532470    0.6616272127   -1.7013161629
H        1.4875381659   -0.5616591445   -0.5588898303
H        0.0289840292    1.1337900187    2.4318300159
H        0.9072344231   -0.3003323884    1.9169714176
29   

C        1.9962365796    4.6922622187   -3.0681421253
C        0.7560051494    5.0577077383   -2.5403904724
C        2.6430555985    3.5508491144   -2.5900013389
C        0.1566419748    4.2747674624   -1.5470713490
C        2.0430543572    2.7682807464   -1.5970494259
C        0.7680906892    3.0993706704   -1.0844893482
C        0.0934719097    2.3673443462    0.0458908221
C       -1.0412492392   -1.3818085667    0.3746455469
C       -0.6362093011   -0.7170832581   -0.9468048914
C       -1.1661894413   -0.3204904855    1.4750782343
C        0.6514101425    0.0994679849   -0.7835560865
C        0.1391296226    0.4730973916    1.6028131321
N        0.4849115239    1.0651225231    0.3085310300
O       -0.6531387969    2.9673507529    0.8122315555
H        2.4623050740    5.3022748938   -3.8339188885
H        0.2590404075    5.9545813349   -2.8928023123
H        3.6191122528    3.2805572765   -2.9770434708
H       -0.7980109636    4.5855678398   -1.1338778630
H        2.5928571796    1.9191559115   -1.2081607820
H       -0.2832156785   -2.1180757503    0.6613593640
H       -1.9943730202   -1.9063585820    0.2513707124
H       -1.4414505645   -0.0500337999   -1.2730681922
H       -0.4977243612   -1.4776086651   -1.7215256429
H       -1.4086345440   -0.7962467732    2.4301211211
H       -1.9817530939    0.3674963573    1.2262870699
H        0.8607612616    0.5800499055   -1.7419128337
H        1.4919262641   -0.5651225130   -0.5576577392
H        0.0280545219    1.2421596921    2.3750768336
H        0.9475892907   -0.1890854947    1.9287493613
29   

C        2.0467101316    4.7868504013   -3.0195119556
C        0.8528158035    5.2003126581   -2.4265997350
C        2.5978803197    3.5518847873   -2.6747586867
C        0.2017666280    4.3728056510   -1.5046811491
C        1.9472228819    2.7240214199   -1.7527699450
C        0.7089210699    3.1030459687   -1.1822024210
C       -0.0175743968    2.3397513217   -0.1006412949
C       -0.9907943571   -1.4163053846    0.4929081138
C       -0.6335530164   -0.8193556912   -0.8727005420
C       -1.1450167409   -0.2916291241    1.5234543056
C        0.6227911010    0.0549248989   -0.7841663897
C        0.1299569856    0.5581028886    1.5825842870
N        0.4487764766    1.0798805817    0.2510465536
O       -0.8480320479    2.9068466143    0.6027368284
H        2.5530027088    5.4310277922   -3.7297591456
H        0.4315992954    6.1686574119   -2.6724624930
H        3.5427671848    3.2430136629   -3.1075794557
H       -0.7148833805    4.7285290926   -1.0444231613
H        2.4460226432    1.8076933430   -1.4638819355
H       -0.1987354396   -2.1012203080    0.8129082004
H       -1.9231213712   -1.9855186924    0.4182310693
H       -1.4699177150   -0.2051088093   -1.2234762339
H       -0.4777737997   -1.6196725892   -1.6028005090
H       -1.3588110926   -0.7129523418    2.5103237365
H       -1.9897664957    0.3464761708    1.2412793083
H        0.7844107658    0.4889237935   -1.7737288766
H        1.4950469006   -0.5620672205   -0.5438943882
H       -0.0053507764    1.3723729944    2.3029484287
H        0.9652870148   -0.0497676657    1.9444632971
