49

C     -1.97973   -0.73511    5.23797
C     -1.61014    0.30186    4.38793
C     -2.46037   -1.93927    4.71307
C     -2.22136   -1.05036    2.43265
C     -1.73076    0.13658    3.00579
C     -2.58152   -2.07525    3.32539
C     -0.85346   -4.32148    6.60628
C     -2.90980   -5.59690    5.69241
C     -2.78871   -3.02837    5.70094
C     -0.14442   -5.64425    6.81228
C     -2.16660   -6.90022    5.92556
C     -1.14644   -6.78151    7.06770
C     -2.15481   -3.46779   -1.27382
C     -1.44038   -4.76460   -0.89102
C      0.20581   -3.11728   -1.03738
C     -2.01676   -4.34274    5.59160
C     -1.13933   -2.41301   -0.80512
C     -2.79345    2.32256    1.54607
C     -2.32065   -1.29331    0.94336
O     -0.52955   -3.29430    7.17199
O     -4.11269   -5.53661    5.54858
O     -3.53289   -2.81587    6.63569
O     -0.54491    2.51022    2.92833
O     -0.53764    1.12528    0.78618
O     -0.05817   -4.52327   -1.18207
O     -1.24398   -2.15375    0.59958
S     -1.21272    1.57516    2.01194
Cl    -3.26450   -3.56942    2.69315
H     -1.88207   -0.63772    6.31436
H     -1.21157    1.23117    4.78035
H      0.43127   -5.86308    5.90193
H      0.56295   -5.52463    7.63567
H     -2.90712   -7.68011    6.11522
H     -1.64208   -7.15610    4.99386
H     -1.67122   -6.60303    8.01327
H     -0.60611   -7.72622    7.17761
H     -2.27835   -3.40562   -2.36051
H     -3.13576   -3.35834   -0.80509
H     -1.57590   -4.97796    0.17879
H     -1.75765   -5.63436   -1.47230
H      0.69415   -2.76527   -1.95213
H      0.86708   -2.93631   -0.18372
H     -1.52301   -4.42897    4.61338
H     -1.21062   -1.46551   -1.35351
H     -2.54515    3.21095    0.96137
H     -3.36930    1.61813    0.94468
H     -3.32943    2.59729    2.45537
H     -3.28987   -1.75615    0.71684
H     -2.24283   -0.36428    0.37469
