51

C      6.75558    0.13323    3.00696
C      5.82442    1.11565    3.36821
C      6.32560   -1.17844    2.79003
C      4.47571    0.78554    3.51159
C      4.97115   -1.50421    2.93252
C      1.64085    2.47058    0.98434
C      0.12523    3.48524   -0.61524
C      1.17648    1.19736    0.62541
C      4.03531   -0.52962    3.29715
C     -0.36268    2.23038   -0.97841
C      0.17127    1.08986   -0.34331
C      1.11633    3.59633    0.36614
C     -3.02067   -2.26085    0.10488
C     -2.65563   -1.00233    0.90086
C     -2.07276   -2.44540   -1.08665
C     -1.18837   -1.01886    1.35162
C     -0.60779   -2.46754   -0.63288
C      1.25572   -1.32054    0.61395
C      1.80345   -0.03008    1.26153
C     -0.20968   -1.22806    0.17864
C     -1.43988    2.07078   -2.02181
C      2.56739   -0.87541    3.45961
N      1.71267    0.06311    2.72827
O     -0.34452   -0.11542   -0.74838
Cl     1.70412    5.19573    0.82014
H      7.80542    0.39071    2.89228
H      6.15177    2.13882    3.53575
H      7.04022   -1.94603    2.50348
H      3.74724    1.54585    3.78025
H      4.63977   -2.52512    2.75226
H      2.40748    2.55759    1.74688
H     -0.27178    4.37905   -1.08743
H     -4.05944   -2.20261   -0.24015
H     -2.95592   -3.13943    0.76259
H     -2.82545   -0.11602    0.27869
H     -3.30394   -0.90084    1.77871
H     -2.30403   -3.37434   -1.62053
H     -2.21456   -1.62424   -1.79810
H     -0.96182   -0.07896    1.86395
H     -1.02934   -1.82877    2.07568
H     -0.42937   -3.35058   -0.00563
H      0.06029   -2.54611   -1.49733
H      1.84757   -1.54423   -0.28127
H      1.38264   -2.16843    1.29416
H      2.87613    0.00735    1.04253
H     -1.08613    1.46850   -2.86535
H     -2.31164    1.55096   -1.61032
H     -1.76312    3.04324   -2.40179
H      2.41799   -1.93092    3.17547
H      2.29047   -0.79772    4.51774
H      0.74817   -0.02597    3.03427
