41

C      1.36484   -0.22742   -0.15549
C      1.11026   -1.58453    0.55664
C      1.20572   -0.54652   -1.65458
C      0.86918   -2.59808   -0.58520
C      1.40398   -4.00442   -0.31663
C      0.68043   -4.70204    0.84215
C      1.13714  -10.76732    3.76200
C      0.49758   -9.37715    3.65744
C      0.48921  -11.59753    4.87572
C      1.23426   -6.10841    1.07073
C      1.14614   -8.55414    2.54437
C      1.08314  -12.98250    5.00211
N      1.55862   -1.97150   -1.72451
O     -1.05187   -7.13154    2.01368
O      0.63938   -6.18896    3.68080
F      0.49052  -13.68874    5.99719
F      2.41343  -12.94500    5.27894
F      0.93884  -13.70649    3.86059
S      0.34726   -6.92183    2.43381
H      0.67119    0.55386    0.16648
H      2.37848    0.12617    0.05020
H      1.98619   -1.88180    1.14217
H      0.25878   -1.54591    1.24072
H      0.16507   -0.35393   -1.97023
H      1.86770    0.04907   -2.29093
H     -0.22054   -2.66630   -0.76663
H      1.29957   -4.60905   -1.22801
H      2.47846   -3.92964   -0.10945
H     -0.39143   -4.76895    0.62847
H      0.79235   -4.12109    1.76233
H      2.21033  -10.66961    3.95892
H      1.03356  -11.29578    2.80803
H     -0.57408   -9.47188    3.45450
H      0.60251   -8.84200    4.60676
H      0.60572  -11.10743    5.84704
H     -0.58285  -11.72294    4.69628
H      1.10244   -6.74397    0.18978
H      2.29131   -6.08606    1.35250
H      2.20780   -8.37477    2.73845
H      1.02651   -9.03074    1.56683
H      1.26478   -2.38645   -2.60667
