71

C      3.50721   -3.15471   -3.98123
C      3.70565   -3.18843   -2.59589
C      2.68415   -2.16709   -4.53209
C     -3.94069  -16.14422   -1.06160
C     -2.87193  -17.01884   -1.27422
C      3.08007   -2.25237   -1.77228
C      2.06664   -1.22480   -3.70541
C      0.72868   -2.46348    1.36632
C      0.01274   -2.88225   -0.88934
C     -0.84996    0.42345    1.17732
C      0.42817   -3.77563    1.71395
C     -0.30323   -4.20204   -0.55612
C     -1.31350    1.40605    2.05142
C     -3.69706  -14.93884   -0.40500
C      0.84423    2.49937    1.91611
C     -1.60772  -16.64089   -0.81427
C      0.54624   -1.99184    0.05187
C      2.24157   -1.25851   -2.31046
C      0.44631    0.46479    0.64123
C      1.30848    1.51862    1.03651
C     -0.08630   -4.65851    0.75123
C     -0.46016    2.45318    2.41847
C     -2.39023  -14.64697    0.01636
C      0.89973   -0.59184   -0.30266
C      1.58631   -0.25717   -1.43026
C      2.73331    1.56108    0.53321
C      1.75616    1.20606   -1.79820
C      2.84557    1.91078   -0.96494
C     -2.06894  -13.35066    0.70589
C     -1.02158   -8.20508    0.95809
C     -1.56940   -9.29049    0.02341
C     -0.85245   -6.87494    0.23790
C     -1.70597  -10.63406    0.73581
N     -1.36076  -15.48467   -0.18394
O     -1.17647  -12.02201   -1.51127
O     -0.84428    3.45608    3.27804
O     -0.35090   -5.93094    1.18541
S     -2.27226  -11.91640   -0.46781
H      3.99132   -3.88618   -4.62319
H      4.35047   -3.94573   -2.15678
H      2.52085   -2.13108   -5.60647
H     -4.94209  -16.39588   -1.40118
H     -3.00945  -17.96910   -1.78201
H      3.23344   -2.28897   -0.69804
H      1.41896   -0.47126   -4.14674
H      1.12136   -1.78954    2.12304
H     -0.15590   -2.54229   -1.90628
H     -1.50924   -0.39399    0.89937
H      0.58421   -4.14013    2.72534
H     -0.71261   -4.85489   -1.31857
H     -2.32761    1.35645    2.44548
H     -4.50089  -14.22936   -0.22558
H      1.49484    3.30984    2.23410
H     -0.75014  -17.29604   -0.95918
H      3.31849    2.27205    1.12459
H      3.18128    0.57280    0.68668
H      2.00270    1.30521   -2.85872
H      0.80755    1.72881   -1.63604
H      2.74807    2.99340   -1.11065
H      3.84286    1.62555   -1.31970
H     -2.74320  -13.15395    1.54631
H     -1.02919  -13.35767    1.03947
H     -1.69174   -8.06094    1.81363
H     -0.04972   -8.51168    1.36134
H     -0.90238   -9.42034   -0.83565
H     -2.54533   -8.98277   -0.37351
H     -1.81403   -6.52674   -0.16450
H     -0.14886   -6.97648   -0.59941
H     -0.74095  -10.96970    1.12996
H     -2.43792  -10.59436    1.55065
H     -1.76287    3.30174    3.54970
