19   

C        0.2864808700   -1.1772538858    0.6306168389
C        2.6562739641   -0.8078655847    0.4968734416
C        0.4337981322   -1.4176320871    2.0060663741
C        2.7337698646   -1.0584040920    1.8789038309
C        1.4104712069   -0.8736013174   -0.1498429341
C        1.1656998246   -0.5942062121   -1.6246463529
C        1.7530026951   -1.5937697987    4.0526578205
N        1.6391338299   -1.3614683627    2.6047003046
N        2.2551292836   -0.6108878080   -2.4426087570
O        0.0635738924   -0.3758916772   -2.0890632316
H       -0.6991717500   -1.2198421961    0.1684591459
H        3.5573719108   -0.5464106960   -0.0498074458
H       -0.4534317796   -1.6503497341    2.5895152079
H        3.7031377916   -0.9986694379    2.3671969501
H        1.8705906300   -2.6625803800    4.2599612102
H        2.6149077723   -1.0560634896    4.4604993266
H        0.8606471015   -1.2257956942    4.5693541865
H        2.0596279086   -0.4491956013   -3.4266777491
H        3.1639007361   -0.9308467210   -2.1383675532
19   

C        0.3036069957   -1.1998505692    0.6072979876
C        2.6563241938   -0.7241134920    0.5104629188
C        0.4471437478   -1.4691834827    1.9779826094
C        2.7310890759   -1.0063199617    1.8863185980
C        1.4219075580   -0.8248216757   -0.1501957205
C        1.1976617185   -0.5066853582   -1.6174457621
C        1.7508065905   -1.6326881468    4.0358364299
N        1.6429201410   -1.3749177400    2.5917366384
N        2.2370359440   -0.7602820158   -2.4587974403
O        0.1364295161   -0.1117755105   -2.0587091650
H       -0.6729411451   -1.2670211715    0.1292770732
H        3.5460270690   -0.4053382722   -0.0259814463
H       -0.4350908416   -1.7534840657    2.5459383386
H        3.6917338437   -0.9146584491    2.3867669784
H        1.9020426722   -2.7008866416    4.2233004462
H        2.5905064894   -1.0750775912    4.4628773587
H        0.8420418469   -1.3043331326    4.5506745278
H        2.0495035588   -0.5970352276   -3.4441121966
H        3.0682442404   -1.2525597478   -2.1600328854
19   

C        0.3257686691   -1.2238159584    0.5927635433
C        2.6570350628   -0.6498710180    0.5313247369
C        0.4675443513   -1.5196155464    1.9583684423
C        2.7314624702   -0.9610115710    1.9007543370
C        1.4341119301   -0.7802619666   -0.1424254813
C        1.2309157939   -0.4273175026   -1.6034517451
C        1.7564794776   -1.6708810690    4.0266198662
N        1.6525893280   -1.3893139963    2.5866728784
N        2.1631952416   -0.8982640296   -2.4724962612
O        0.2377259723    0.1368138090   -2.0167400142
H       -0.6417003205   -1.3154448980    0.1011158842
H        3.5353589672   -0.2844005740    0.0049101949
H       -0.4073645673   -1.8523735700    2.5111276762
H        3.6832490623   -0.8415137582    2.4121498971
H        1.9393628366   -2.7371316169    4.1958469658
H        2.5749170674   -1.0956666407    4.4712743163
H        0.8338518402   -1.3799424098    4.5393548597
H        1.9745139812   -0.7263411281   -3.4560266699
H        2.9106520248   -1.5147932275   -2.1811226388
19   

C        0.3586359055   -1.2687973475    0.5748070860
C        2.6627172400   -0.5956879723    0.5503218331
C        0.4986205378   -1.5835784650    1.9366256785
C        2.7369254642   -0.9283436291    1.9144186321
C        1.4538003414   -0.7611299479   -0.1387378690
C        1.2674855389   -0.3691497741   -1.5917339724
C        1.7688279883   -1.7086746130    4.0184267649
N        1.6699869464   -1.4131289432    2.5809213657
N        2.0351645654   -1.0228903143   -2.4987149654
O        0.3893875471    0.3824005988   -1.9634043613
H       -0.5992468393   -1.3886616800    0.0714428164
H        3.5287553539   -0.1846123976    0.0367282222
H       -0.3670785824   -1.9619125492    2.4743595585
H        3.6776855420   -0.7770632666    2.4376708498
H        1.9890517098   -2.7693961117    4.1772522815
H        2.5607165739   -1.1091756498    4.4788704597
H        0.8308554230   -1.4574668398    4.5243381703
H        1.8451646471   -0.8139296980   -3.4746890354
H        2.6826304689   -1.7536087528   -2.2315563194
19   

C        0.4140868393   -1.3083822636    0.5436590505
C        2.6859558709   -0.5406428114    0.5833093199
C        0.5362419279   -1.6378273202    1.9041730345
C        2.7443132798   -0.8901936270    1.9434728216
C        1.5026591056   -0.7457761842   -0.1378624091
C        1.3479185484   -0.3091795893   -1.5821885613
C        1.7613892722   -1.7348160949    4.0148512655
N        1.6841869534   -1.4283612065    2.5783109216
N        1.9106401949   -1.1033772470   -2.5239326096
O        0.6790870279    0.6486504528   -1.9108594661
H       -0.5280622903   -1.4574808235    0.0197768775
H        3.5435592750   -0.0832093529    0.0949545856
H       -0.3250572575   -2.0579341483    2.4173905108
H        3.6658401656   -0.7056580623    2.4897766011
H        2.0334063240   -2.7840973397    4.1690475439
H        2.5080656237   -1.0992148936    4.5017591915
H        0.7988260398   -1.5389025882    4.4985085738
H        1.7567673180   -0.8297719602   -3.4901678241
H        2.4127564177   -1.9498816424   -2.2864857964
19   

C        0.8825351905   -0.0594729013    0.7027870194
C        2.5012435811   -1.8071478076    0.4445668507
C        0.8111572350   -0.3740664733    2.0711538175
C        2.3870413155   -2.0727582050    1.8193589911
C        1.7380838303   -0.7861865318   -0.1357525593
C        1.9094634904   -0.3965973490   -1.5921232880
C        1.4959924129   -1.6360174395    4.0497537081
N        1.5528149270   -1.3646888373    2.6052298045
N        1.0642500478   -0.9669575755   -2.4828358982
O        2.7662935258    0.3754369190   -1.9692528273
H        0.2986470680    0.7630117052    0.2951267187
H        3.2023169560   -2.3683548960   -0.1696643035
H        0.1503095691    0.2104133646    2.7062081227
H        3.0007017247   -2.8596413522    2.2506659446
H        0.8076016954   -2.4615888999    4.2579216632
H        2.4907017941   -1.8938844223    4.4279616213
H        1.1585898240   -0.7476439571    4.5932223772
H        1.1954343287   -0.7062583031   -3.4559398343
H        0.3487855665   -1.6262122408   -2.2022281454
19   

C        0.8746126593   -0.1262219122    0.6757125567
C        2.5759319107   -1.7990355797    0.4797696321
C        0.7899625813   -0.4227782136    2.0479175780
C        2.4469951770   -2.0494324248    1.8555051790
C        1.7751244053   -0.8284857026   -0.1353722821
C        1.9775249397   -0.4608081465   -1.5933599693
C        1.4897033588   -1.6234610137    4.0598047232
N        1.5643844481   -1.3703034358    2.6128111451
N        0.9964967806   -0.8231676166   -2.4546216147
O        3.0037437547    0.0360236285   -2.0094246200
H        0.2621977092    0.6634961598    0.2462666036
H        3.3168118629   -2.3322778174   -0.1128933305
H        0.0909760110    0.1402475037    2.6611481460
H        3.0890239930   -2.7996249548    2.3102542624
H        0.8287075623   -2.4714379680    4.2667903007
H        2.4857602497   -1.8392147163    4.4602003948
H        1.1094036744   -0.7409123816    4.5840437202
H        1.1705694240   -0.6302854133   -3.4367984421
H        0.1717264595   -1.3264503790   -2.1521574392
19   

C        0.8464008206   -0.1789808379    0.6543208252
C        2.6181517290   -1.7785024029    0.5015768607
C        0.7601006170   -0.4591873135    2.0303471483
C        2.4864878682   -2.0152305884    1.8789352246
C        1.7824719591   -0.8539114350   -0.1385412639
C        1.9917886041   -0.5166036486   -1.6026124916
C        1.4865931831   -1.6036874685    4.0662146840
N        1.5676234518   -1.3647444394    2.6171636162
N        0.9146193507   -0.6557219641   -2.4166198162
O        3.0829588871   -0.2615684317   -2.0700736203
H        0.2046972093    0.5785127100    0.2103375393
H        3.3863299567   -2.2883364504   -0.0774848063
H        0.0312919536    0.0816306177    2.6286532854
H        3.1552490565   -2.7314467424    2.3496820785
H        0.8781993518   -2.4898535771    4.2746580454
H        2.4881309070   -1.7498991118    4.4840510940
H        1.0417499902   -0.7413720332    4.5729276344
H        1.0865807492   -0.5106902188   -3.4074528368
H        0.0291888725   -1.0146949391   -2.0825186722
19   

C        0.8337299207   -0.2572101957    0.6146948343
C        2.6714568992   -1.7811927959    0.5168617151
C        0.7478755723   -0.5065116961    1.9970713104
C        2.5390826101   -1.9898272774    1.8982460150
C        1.8039498565   -0.9090017770   -0.1557662292
C        2.0105067482   -0.6317080283   -1.6332822940
C        1.5000103157   -1.5732172603    4.0658576719
N        1.5872120362   -1.3620728512    2.6128737101
N        0.8853041779   -0.5576089552   -2.3938100279
O        3.1078139956   -0.5838264361   -2.1519079232
H        0.1616699825    0.4614347875    0.1522611048
H        3.4620496832   -2.2774529678   -0.0441706710
H       -0.0089987814    0.0161394849    2.5763788534
H        3.2324870185   -2.6672696107    2.3902717958
H        0.9102353686   -2.4687673785    4.2875104986
H        2.5010931494   -1.6888894991    4.4941609114
H        1.0320783738   -0.7110339844    4.5515210342
H        1.0379269144   -0.4520598380   -3.3928834916
H       -0.0307379726   -0.7760487080   -2.0240712413
19   

C        0.8162636401   -0.3239022777    0.6050655645
C        2.7236702122   -1.7580644131    0.5582564983
C        0.7277432838   -0.5489421815    1.9917759623
C        2.5871789208   -1.9455328668    1.9418445349
C        1.8253951989   -0.9403409831   -0.1446399812
C        2.0329836365   -0.7216045589   -1.6332575127
C        1.5021184903   -1.5418521008    4.0889338165
N        1.5993080537   -1.3505098177    2.6338698831
N        0.9233674615   -0.4361053863   -2.3689174360
O        3.1117624446   -0.8482510147   -2.1779045955
H        0.1104051525    0.3508678122    0.1285535345
H        3.5389671923   -2.2357561579    0.0163378198
H       -0.0606963167   -0.0536387659    2.5527133948
H        3.3049255333   -2.5822364135    2.4529983049
H        0.9276702947   -2.4455079454    4.3180326550
H        2.5009023793   -1.6327928070    4.5283426794
H        1.0135159821   -0.6816076220    4.5573384708
H        1.0769809329   -0.3492310528   -3.3697147111
H       -0.0111436820   -0.5045669376   -1.9891408785
19   

C        0.7842931523   -0.3873911720    0.5957805507
C        2.7581893233   -1.7249737352    0.5794811489
C        0.7079555232   -0.5849943209    1.9876883743
C        2.6324778142   -1.8880852819    1.9668125077
C        1.8227128695   -0.9666135046   -0.1441015965
C        2.0156619535   -0.8104768409   -1.6451238941
C        1.5246046946   -1.4991066640    4.1045926024
N        1.6174289350   -1.3276115701    2.6467933762
N        0.9601305889   -0.3259944160   -2.3572048916
O        3.0469732601   -1.1076016031   -2.2155983895
H        0.0366331337    0.2340429445    0.1124605644
H        3.5917906385   -2.1840092134    0.0491656236
H       -0.1059965970   -0.1203124682    2.5382802496
H        3.3788360426   -2.4809026051    2.4896424920
H        0.9803676512   -2.4179554910    4.3469308393
H        2.5251110260   -1.5505850659    4.5463846596
H        1.0068966104   -0.6484882914    4.5590347205
H        1.1104157879   -0.2587609691   -3.3600538611
H        0.0395266653   -0.2025433913   -1.9601012179
19   

C        0.7330929598   -0.5094652467    0.5954289073
C        2.8006320123   -1.6905354649    0.6002610657
C        0.6804948504   -0.6719503495    1.9930510107
C        2.6974802109   -1.8231398499    1.9925297202
C        1.8080301234   -1.0241175393   -0.1405108236
C        1.9867015621   -0.9252420445   -1.6510636572
C        1.5732299253   -1.4671339590    4.1272180949
N        1.6480824479   -1.3223406570    2.6655148788
N        1.0220090917   -0.2819136544   -2.3565450078
O        2.9426418466   -1.3964477189   -2.2359248164
H       -0.0755949462    0.0201392648    0.1023208366
H        3.6606374459   -2.1092616055    0.0787429449
H       -0.1670763910   -0.2617965185    2.5361651334
H        3.4883347392   -2.3463129767    2.5242026141
H        1.1022170864   -2.4195893078    4.3923582440
H        2.5760265617   -1.4317261136    4.5653212877
H        0.9924890242   -0.6491439236    4.5650000779
H        1.1765408213   -0.2359157581   -3.3599045638
H        0.2083987799    0.1410938548   -1.9342042193
19   

C        0.6829829777   -0.5837034880    0.5767173092
C        2.8300345193   -1.6209606993    0.5906510109
C        0.6504082409   -0.7200442430    1.9776510489
C        2.7435700815   -1.7305242328    1.9862239511
C        1.7898761614   -1.0371292503   -0.1516997739
C        1.9236473073   -0.9700900334   -1.6656918770
C        1.6043801622   -1.4156122233    4.1199157436
N        1.6655448788   -1.2877437431    2.6560036145
N        1.0517816957   -0.1596717989   -2.3282856543
O        2.7670126475   -1.5886321387   -2.2849475960
H       -0.1708449710   -0.1408935702    0.0731025850
H        3.7078173259   -1.9978071698    0.0668961718
H       -0.2232778564   -0.3644812549    2.5178879793
H        3.5690620427   -2.1912470767    2.5229960653
H        1.1844853278   -2.3875320777    4.4001119319
H        2.6056968456   -1.3228734570    4.5528753432
H        0.9837259174   -0.6228003319    4.5491487895
H        1.1835301140   -0.1154584492   -3.3350133427
H        0.4319890323    0.4834602439   -1.8564218574
19   

C        0.6472606038   -0.6382504817    0.5718442822
C        2.8442196439   -1.5713800956    0.5825503594
C        0.6334853188   -0.7499983818    1.9749636364
C        2.7745582106   -1.6591476274    1.9809556572
C        1.7707157047   -1.0494969952   -0.1556935997
C        1.8566075560   -1.0280604318   -1.6719123050
C        1.6351305251   -1.3699724567    4.1185948383
N        1.6815078643   -1.2561678755    2.6529808489
N        1.1315717341   -0.0691699481   -2.3111899880
O        2.5737120034   -1.7765258684   -2.3059643117
H       -0.2313123919   -0.2561408628    0.0593263033
H        3.7286195859   -1.9233993102    0.0529402741
H       -0.2534346167   -0.4310176387    2.5164888865
H        3.6236695375   -2.0740291354    2.5182665235
H        1.2724075789   -2.3609376060    4.4118702424
H        2.6315998368   -1.2156132635    4.5450024025
H        0.9718975450   -0.6093456568    4.5422992434
H        1.2477568309   -0.0382672451   -3.3202917643
H        0.6728041892    0.6836445997   -1.8162007104
19   

C        0.6014738179   -0.6848093845    0.5733265652
C        2.8411953652   -1.5171572724    0.5641365884
C        0.6093486123   -0.7834575451    1.9771144078
C        2.7911805832   -1.5946128887    1.9644135134
C        1.7363018109   -1.0493131697   -0.1613831732
C        1.7729551764   -1.0606300802   -1.6783900612
C        1.6615759397   -1.3441099822    4.1126318729
N        1.6880851718   -1.2352652575    2.6461363253
N        1.2317293030    0.0176403587   -2.3048139555
O        2.3441445361   -1.9195111560   -2.3198492458
H       -0.2971048297   -0.3515288063    0.0601089872
H        3.7296175392   -1.8412277367    0.0239972945
H       -0.2857679768   -0.5022905070    2.5260655944
H        3.6627350094   -1.9688708077    2.4955722580
H        1.3553687242   -2.3517924988    4.4134673515
H        2.6520544889   -1.1341909564    4.5290619116
H        0.9616954389   -0.6187927376    4.5392734583
H        1.3339645130    0.0340939998   -3.3156770264
H        0.9120875512    0.8323184081   -1.7971893619
19   

C        0.5489804597   -0.7298392462    0.5887153710
C        2.8251118465   -1.4634915113    0.5507810057
C        0.5818104962   -0.8164633446    1.9925572009
C        2.7981071214   -1.5314804452    1.9526209090
C        1.6894155486   -1.0497851109   -0.1579476132
C        1.6767117763   -1.0897704077   -1.6743369146
C        1.6870831980   -1.3202021286    4.1151439747
N        1.6895487926   -1.2156783722    2.6480904547
N        1.3504569205    0.0655163354   -2.3068449263
O        2.0607028742   -2.0493533452   -2.3115037610
H       -0.3686432447   -0.4413966952    0.0813250664
H        3.7160431908   -1.7584487811   -0.0011072950
H       -0.3173249520   -0.5716723311    2.5522639361
H        3.6915197138   -1.8653353440    2.4742966128
H        1.4423454203   -2.3426390612    4.4225616762
H        2.6687392514   -1.0523901133    4.5189759089
H        0.9514766656   -0.6350947904    4.5480860115
H        1.4279881112    0.0530136895   -3.3198540507
H        1.1742975249    0.9251845647   -1.8024601290
19   

C        0.5131956429   -0.7853518027    0.5900599198
C        2.8243003212   -1.4068818332    0.5321537961
C        0.5626372895   -0.8658384146    1.9932914560
C        2.8117814008   -1.4716427890    1.9348854308
C        1.6620386824   -1.0535442097   -0.1651374088
C        1.6181017617   -1.1039379735   -1.6807218320
C        1.7080807956   -1.3131994661    4.1064266343
N        1.6944535175   -1.2091934099    2.6393848325
N        1.5313937130    0.0847768965   -2.3243078096
O        1.7612986760   -2.1321158571   -2.3095590663
H       -0.4204444870   -0.5433229442    0.0872177667
H        3.7236745928   -1.6611636287   -0.0254898746
H       -0.3428161897   -0.6638761640    2.5598768523
H        3.7241084333   -1.7605437176    2.4505997729
H        1.5006306097   -2.3432936139    4.4157988306
H        2.6834169931   -1.0124955739    4.5022201308
H        0.9532947641   -0.6532290459    4.5454095264
H        1.5681107571    0.0472252351   -3.3389114684
H        1.5094002099    0.9668309154   -1.8277991740
19   

C        0.4518254305   -0.8326955226    0.6055454010
C        2.7928953514   -1.3347354400    0.5125246837
C        0.5247581800   -0.9134198422    2.0071801215
C        2.8017818886   -1.4028574695    1.9157291737
C        1.6020626343   -1.0457351341   -0.1658178352
C        1.5232931668   -1.0813211708   -1.6804713514
C        1.7195711869   -1.3082821410    4.1025563690
N        1.6815226795   -1.2007989221    2.6361784433
N        1.6867989800    0.0963651955   -2.3278136760
O        1.3407838530   -2.1048815845   -2.3061213545
H       -0.4983968351   -0.6358684661    0.1136993243
H        3.6983884782   -1.5376306352   -0.0554965745
H       -0.3821456801   -0.7582406282    2.5860605911
H        3.7342882944   -1.6442761978    2.4196247529
H        1.5546550929   -2.3462293303    4.4113242689
H        2.6884249790   -0.9729042624    4.4861206175
H        0.9469682988   -0.6778891621    4.5539040725
H        1.6432974300    0.0604190026   -3.3421723846
H        1.8565312767    0.9642944766   -1.8347198298
19   

C        0.3931385634   -0.8818916160    0.6274668863
C        2.7578314665   -1.2604584290    0.4993851820
C        0.4893426750   -0.9623449397    2.0271301052
C        2.7881714200   -1.3317563282    1.9027310691
C        1.5418869119   -1.0388317979   -0.1599579249
C        1.4265773757   -1.0511547745   -1.6722924499
C        1.7307682403   -1.3004720384    4.1043622701
N        1.6681001210   -1.1916752811    2.6389139961
N        1.8338877066    0.0633290987   -2.3254812437
O        0.9132417787   -1.9647201693   -2.2844108529
H       -0.5711568304   -0.7309597063    0.1461485898
H        3.6668638750   -1.4087474097   -0.0793043136
H       -0.4166425762   -0.8544337549    2.6180734444
H        3.7384715562   -1.5231919970    2.3947050343
H        1.6000189392   -2.3432109541    4.4133483478
H        2.6951492998   -0.9385716207    4.4747672446
H        0.9472810987   -0.6927627385    4.5679756638
H        1.7045052539    0.0639190504   -3.3331554001
H        2.1989841794    0.8719388414   -1.8376933726
19   

C        0.3518106705   -0.9386928560    0.6377288666
C        2.7327552687   -1.2001691539    0.4873491524
C        0.4628039325   -1.0275133205    2.0353586616
C        2.7764793677   -1.2831879950    1.8901315287
C        1.5007851523   -1.0331784360   -0.1593680248
C        1.3553691648   -1.0125911170   -1.6685540578
C        1.7354851924   -1.3185480415    4.1001325943
N        1.6563074218   -1.2044941624    2.6358755206
N        1.9901232788   -0.0074403715   -2.3222986621
O        0.6070840994   -1.7565822136   -2.2690012556
H       -0.6214778975   -0.8269259082    0.1628991846
H        3.6446238737   -1.2959885759   -0.0975541888
H       -0.4429160014   -0.9674691778    2.6334809749
H        3.7384061697   -1.4310626924    2.3744701977
H        1.6406472146   -2.3663260810    4.4050371422
H        2.6910853963   -0.9280142683    4.4641356249
H        0.9374159192   -0.7378107934    4.5734406029
H        1.8200768589    0.0492775278   -3.3223820775
H        2.5100391333    0.7105598353   -1.8337142634
19   

C        0.3184063248   -0.9777770014    0.6439296675
C        2.7087688916   -1.1328383092    0.4788256380
C        0.4397165857   -1.0876620524    2.0389028311
C        2.7617198022   -1.2399561733    1.8799558422
C        1.4666209824   -1.0034574849   -0.1592368842
C        1.2932275498   -0.9452966304   -1.6647278276
C        1.7332964030   -1.3522868419    4.0936837705
N        1.6425912805   -1.2222677812    2.6314151807
N        2.1196299037   -0.0970819657   -2.3325405549
O        0.3971141285   -1.5179477430   -2.2516551428
H       -0.6613801144   -0.8960624883    0.1755155349
H        3.6228608626   -1.1802003243   -0.1079805366
H       -0.4651706055   -1.0765605515    2.6411964463
H        3.7309490560   -1.3545438222    2.3587066909
H        1.6686782030   -2.4057872908    4.3863485830
H        2.6799851156   -0.9403525884    4.4574016493
H        0.9227616670   -0.7986310741    4.5782352746
H        1.9416374299   -0.0026062013   -3.3284790794
H        2.7598122806    0.5222337304   -1.8526047233
19   

C        0.2906643052   -1.0117295798    0.6577485480
C        2.6853310554   -1.0602837691    0.4798932540
C        0.4232131314   -1.1461448295    2.0492943171
C        2.7485089620   -1.1948404874    1.8784727738
C        1.4345688903   -0.9654566919   -0.1504500218
C        1.2291305677   -0.8766067200   -1.6517648908
C        1.7359820511   -1.3906470414    4.0939050251
N        1.6332648281   -1.2399104397    2.6344173396
N        2.1941727446   -0.2254026256   -2.3577727673
O        0.2351233026   -1.2921980520   -2.2139709334
H       -0.6956199379   -0.9590577360    0.1982840328
H        3.6009082936   -1.0593091774   -0.1054933908
H       -0.4787225588   -1.1856994414    2.6548224641
H        3.7235489606   -1.2777796624    2.3519016089
H        1.7146934194   -2.4504913579    4.3693598894
H        2.6670500022   -0.9470356414    4.4607004375
H        0.9063845005   -0.8775470361    4.5907587976
H        2.0119457367   -0.1232375370   -3.3522704412
H        2.9406570878    0.2877728528   -1.9083969878
19   

C        0.2747098674   -1.0570422231    0.6535228051
C        2.6698686470   -0.9836283341    0.4862576130
C        0.4085311239   -1.2197079775    2.0417057340
C        2.7333779835   -1.1497922318    1.8816363881
C        1.4172333481   -0.9317593144   -0.1484124152
C        1.1919696050   -0.8068594927   -1.6473013411
C        1.7223742240   -1.4427534595    4.0873747640
N        1.6189922895   -1.2677323270    2.6306347123
N        2.2464915644   -0.3744029988   -2.3936322456
O        0.1318527558   -1.0586332953   -2.1865513966
H       -0.7138462470   -1.0366093284    0.1960846516
H        3.5903484420   -0.9202083367   -0.0863589407
H       -0.4928944696   -1.3164731429    2.6415466639
H        3.7091097989   -1.1944877051    2.3587433788
H        1.7219133768   -2.5074872993    4.3439820660
H        2.6439263127   -0.9876642241    4.4639941683
H        0.8822093728   -0.9543935932    4.5914561422
H        2.0601970469   -0.2728289197   -3.3874798668
H        3.0955731613   -0.0113881459   -1.9836300625
19   

C        0.2849806638   -1.1327645467    0.6470202411
C        2.6717087925   -0.8957627114    0.4869007435
C        0.4307308844   -1.3424775087    2.0274708901
C        2.7459148046   -1.1125566798    1.8750670552
C        1.4177264141   -0.9065802578   -0.1474163771
C        1.1587426288   -0.6842814193   -1.6329146483
C        1.7550126585   -1.5422288536    4.0680798962
N        1.6420388145   -1.3343154147    2.6163370928
N        2.2353888489   -0.4622999018   -2.4305900043
O        0.0461927089   -0.6904648060   -2.1238585922
H       -0.7064594138   -1.1455753688    0.1955196391
H        3.5848721547   -0.7208140989   -0.0728955319
H       -0.4625817002   -1.5155819118    2.6222782108
H        3.7214274501   -1.1005191072    2.3545157087
H        1.8058333147   -2.6118238997    4.2975607940
H        2.6537216742   -1.0529725553    4.4569175435
H        0.8930132082   -1.1069748875    4.5840057906
H        2.0243753238   -0.3197469262   -3.4143805132
H        3.1880471936   -0.4644458711   -2.0961847621
