18   

C        4.6331489744    1.3459722268    0.7538183322
C        5.8139907594    1.1162716275    0.0578439648
C        3.5008874128    0.5758692131    0.4819786556
C        5.8525192027    0.1176163277   -0.9129831307
C        3.5148812075   -0.4449182471   -0.4880718959
C        4.7243040892   -0.6614947184   -1.1988640496
C        2.2836726517   -1.2595635898   -0.7409971179
C        0.9255132054   -0.7892422783   -0.2311502954
O        2.3102354744   -2.3131859061   -1.3628699842
O        4.8394502579   -1.6001087843   -2.1827803997
H        4.5933088201    2.1217185854    1.5103739522
H        6.6964254522    1.7112886650    0.2677203032
H        2.6063407837    0.7855760890    1.0569106597
H        6.7762154698   -0.0470309441   -1.4536462369
H        0.7670969201    0.2586429168   -0.4992965681
H        0.8758648781   -0.9036685847    0.8547637615
H        0.1296915410   -1.3874178379   -0.6844089478
H        5.7506974165   -1.6457515042   -2.5119242661
18   

C        4.6560720418    1.3455002593    0.7980864967
C        5.8087067005    1.1619621587    0.0407735382
C        3.5350944513    0.5453601376    0.5677991315
C        5.8294911661    0.1814568259   -0.9507643350
C        3.5390812337   -0.4554416673   -0.4197620245
C        4.7108291942   -0.6248425163   -1.1941939184
C        2.3294741382   -1.3189268933   -0.6179731070
C        0.9406437349   -0.7750286015   -0.3057239802
O        2.4123600260   -2.4711546229   -1.0185709282
O        4.7846255612   -1.5399450705   -2.2039744062
H        4.6309738711    2.1060786544    1.5704843074
H        6.6827895331    1.7791405938    0.2191880502
H        2.6587921128    0.7057303864    1.1858787778
H        6.7286194704    0.0543169868   -1.5406949331
H        0.8585710102    0.2596012326   -0.6492617483
H        0.7583992881   -0.8184453630    0.7710679076
H        0.1829331159   -1.3739968384   -0.8189723346
H        5.6888866854   -1.5978302781   -2.5507691384
18   

C        4.7236058860    1.2900806383    0.8579609231
C        5.8289615291    1.1403999746    0.0240819593
C        3.5968832321    0.4855203685    0.6732469358
C        5.7968165969    0.1891053250   -0.9967346793
C        3.5526894013   -0.4797736068   -0.3443829146
C        4.6707240782   -0.6193333493   -1.1921514757
C        2.3474367075   -1.3659700565   -0.4960315700
C        0.9502040369   -0.7750504304   -0.3656893211
O        2.4567350047   -2.5681761037   -0.6810882383
O        4.6741182470   -1.5111449621   -2.2252946493
H        4.7408016468    2.0260546759    1.6540197079
H        6.7074983712    1.7604684331    0.1669972955
H        2.7546132354    0.6093642566    1.3450197703
H        6.6581162862    0.0867100736   -1.6450194022
H        0.8937595146    0.1644797848   -0.9218806988
H        0.7197863874   -0.5888418414    0.6860969281
H        0.2119786439   -1.4706909044   -0.7747278839
H        5.5609875579   -1.5831983655   -2.6129036594
18   

C        4.7769616236    1.2316689954    0.9525418487
C        5.8308166745    1.1371716463    0.0451626146
C        3.6523811039    0.4162228940    0.8024124374
C        5.7505628000    0.2283878401   -1.0123179057
C        3.5638512259   -0.4991184923   -0.2538192506
C        4.6258029145   -0.5893716400   -1.1706774855
C        2.3643005783   -1.4049516050   -0.3769963154
C        0.9631906408   -0.8087623537   -0.4041809193
O        2.4840695210   -2.6188476484   -0.3551165292
O        4.5692326096   -1.4487953079   -2.2294476100
H        4.8335868375    1.9317160573    1.7785918674
H        6.7073852355    1.7655604651    0.1612313905
H        2.8511565281    0.4895706757    1.5296132080
H        6.5719455042    0.1659712842   -1.7151800852
H        0.7939804523   -0.3288135716   -1.3717157038
H        0.8460019135   -0.0657391876    0.3877128132
H        0.2178471923   -1.5966132756   -0.2633204632
H        5.4326239333   -1.5044313258   -2.6700832810
18   

C        4.8386257302    1.1837745905    1.0318077321
C        5.8391248650    1.1234479160    0.0622276310
C        3.7104653072    0.3667376636    0.9204153735
C        5.7020286296    0.2466482039   -1.0169376926
C        3.5680907327   -0.5143591444   -0.1557819405
C        4.5729333033   -0.5718902766   -1.1338143554
C        2.3581691156   -1.4159331338   -0.2556184048
C        0.9906648608   -0.8060595362   -0.5242993514
O        2.4380934431   -2.6069932263   -0.0090216900
O        4.4535331727   -1.4055749256   -2.2079334870
H        4.9388035251    1.8590087209    1.8741959272
H        6.7180229085    1.7535685727    0.1470483109
H        2.9441390606    0.4108632235    1.6870672132
H        6.4818008171    0.2098618121   -1.7673925112
H        0.9020942154   -0.5743587454   -1.5889993893
H        0.8687358980    0.1145000334    0.0517294208
H        0.2026521514   -1.5106231569   -0.2442686779
H        5.2844429009   -1.4338337992   -2.7101018380
18   

C        4.9142367550    1.1369592841    1.1193396098
C        5.8512057951    1.1056343263    0.0868139473
C        3.7790521339    0.3245279131    1.0545416343
C        5.6429454299    0.2631489516   -1.0082885271
C        3.5701342767   -0.5278990587   -0.0328433599
C        4.5065762461   -0.5506182396   -1.0771576838
C        2.3326806703   -1.3957109205   -0.1114142168
C        1.0784386876   -0.8460173810   -0.7723223320
O        2.3184521221   -2.5209620057    0.3569035494
O        4.3134658876   -1.3497971861   -2.1669313929
H        5.0674405061    1.7880053802    1.9727147938
H        6.7346539757    1.7333021648    0.1344140350
H        3.0568450072    0.3492429966    1.8638800204
H        6.3722999496    0.2506648683   -1.8085871155
H        1.2780009069   -0.6567850580   -1.8303912805
H        0.7866778515    0.0903325366   -0.2900627194
H        0.2598387632   -1.5659188856   -0.6856055795
H        5.1000015370   -1.3407318238   -2.7372608333
18   

C        4.9701236657    1.0775134697    1.1664757372
C        5.8557072087    1.0796483650    0.0891756990
C        3.8243295764    0.2788919426    1.1243309099
C        5.5867961488    0.2831553814   -1.0270884724
C        3.5543983572   -0.5279086104    0.0145702431
C        4.4399971239   -0.5176555155   -1.0743652711
C        2.2910481144   -1.3567723676   -0.0306313630
C        1.1372970960   -0.9255126582   -0.9244368594
O        2.1822206524   -2.3746476185    0.6332516641
O        4.1962938621   -1.2792286889   -2.1808200699
H        5.1704860882    1.6926067513    2.0365915472
H        6.7469361692    1.6973334893    0.1191520548
H        3.1399477987    0.2782804961    1.9664977504
H        6.2787044178    0.2955178339   -1.8599786836
H        1.4640942888   -0.9008002558   -1.9669948876
H        0.8001094754    0.0722169353   -0.6322963097
H        0.3044954282   -1.6277968893   -0.8292821128
H        4.9509530928   -1.2383923632   -2.7917703744
18   

C        5.0275439122    1.0331201364    1.1988496217
C        5.8693797447    1.0699347020    0.0873066456
C        3.8679040532    0.2546136141    1.1683375815
C        5.5444626267    0.3277478695   -1.0519107865
C        3.5428392847   -0.4978245275    0.0325380724
C        4.3838304476   -0.4537561885   -1.0906134454
C        2.2553888184   -1.2841796603    0.0325155930
C        1.1591130225   -0.9687913181   -0.9756946680
O        2.0621335897   -2.1526924064    0.8700791312
O        4.0927668643   -1.1675912905   -2.2168892533
H        5.2720953686    1.6059341683    2.0863599554
H        6.7711740101    1.6724441767    0.1090976075
H        3.2161624154    0.2267322780    2.0359150272
H        6.2053685252    0.3665630108   -1.9088114315
H        1.4157841374   -1.3922635208   -1.9496847873
H        1.0486531204    0.1141994594   -1.0734578861
H        0.2091335655   -1.3948462320   -0.6416951826
H        4.8195655285   -1.0957417397   -2.8582406191
18   

C        5.0238361341    0.8999921610    1.2659796946
C        5.8416193426    0.9702155584    0.1386765143
C        3.8345499052    0.1689903836    1.2190311664
C        5.4646538830    0.3073214608   -1.0328082367
C        3.4536816969   -0.5034781805    0.0479737210
C        4.2747115276   -0.4279478096   -1.0907944045
C        2.1348636819   -1.2265628262    0.0548249545
C        1.1353180171   -1.0626735969   -1.0823056202
O        1.8274942007   -1.9241431991    1.0129604984
O        3.9434472555   -1.0671394688   -2.2504000079
H        5.3089640880    1.4111591281    2.1786758486
H        6.7657754709    1.5371831361    0.1735388811
H        3.2018535143    0.1189402193    2.0999340770
H        6.1098012436    0.3710750269   -1.9001602015
H        1.3051684238   -1.8365743275   -1.8352861486
H        1.2542596697   -0.0793811021   -1.5448702617
H        0.1156782896   -1.1523490054   -0.6980623991
H        4.6519625964   -0.9606614877   -2.9073073892
18   

C        5.0770858836    0.8538708423    1.2798328048
C        5.8709489968    0.9418145830    0.1379458554
C        3.8596999682    0.1714424311    1.2314795050
C        5.4437160629    0.3423583509   -1.0495380207
C        3.4201689122   -0.4326382186    0.0407205300
C        4.2257619560   -0.3456370082   -1.1122392693
C        2.0824425880   -1.1168180306    0.0737127527
C        1.1450248250   -1.1282068672   -1.1274520170
O        1.6868705618   -1.6163858788    1.1214236485
O        3.8643380698   -0.9313092414   -2.2907166688
H        5.4021335332    1.3140637587    2.2062138882
H        6.8168006379    1.4716843481    0.1745174051
H        3.2517159479    0.1132797183    2.1292577815
H        6.0745880910    0.4160727464   -1.9265514580
H        1.3817880258   -1.9792814752   -1.7712182965
H        1.2539718260   -0.2015534725   -1.6969046455
H        0.1083069261   -1.2131501508   -0.7905182323
H        4.5637840663   -0.8096118738   -2.9547053066
18   

C        5.0830098185    0.7998025696    1.3193374733
C        5.8609611689    0.8893163819    0.1682669842
C        3.8307047940    0.1846207058    1.2692036549
C        5.3831669349    0.3571649270   -1.0306945147
C        3.3329246644   -0.3496816010    0.0655402595
C        4.1299666209   -0.2644105784   -1.0982630925
C        1.9669680649   -0.9783938683    0.1183463243
C        1.1066665280   -1.2078730309   -1.1190034523
O        1.4736853313   -1.2520117208    1.2086311714
O        3.7350380453   -0.7845955891   -2.2960990259
H        5.4471614506    1.2072294100    2.2558396220
H        6.8338620079    1.3675768456    0.2066520893
H        3.2452422503    0.1312731254    2.1820301244
H        6.0042438143    0.4300995977   -1.9147457279
H        1.4613436807   -2.0904137225   -1.6576421789
H        1.1513420163   -0.3346741315   -1.7748359866
H        0.0656043685   -1.3687665043   -0.8255543578
H        4.4289762536   -0.6537207297   -2.9640896783
18   

C        5.1368197599    0.7417162919    1.3248051842
C        5.9095594468    0.8403127913    0.1720257152
C        3.8570325086    0.1876727448    1.2623507863
C        5.3966424928    0.3825852290   -1.0421945166
C        3.3234184494   -0.2794076574    0.0452144916
C        4.1148238207   -0.1761445337   -1.1239601954
C        1.9337491216   -0.8573044862    0.0966843421
C        1.2005331264   -1.4089627102   -1.1209809246
O        1.3396025054   -0.8958518344    1.1707119722
O        3.6851390095   -0.6003468150   -2.3470149056
H        5.5263533517    1.0945459929    2.2731866266
H        6.9041073001    1.2707883933    0.2201115404
H        3.2829163700    0.1269120783    2.1818019835
H        6.0121750476    0.4673545611   -1.9290721757
H        1.7624870961   -2.2430102549   -1.5489829881
H        1.0763609892   -0.6226349661   -1.8699041953
H        0.2104205263   -1.7704842089   -0.8294344063
H        4.3713632249   -0.4426377504   -3.0171390512
18   

C        5.1399417163    0.6652486322    1.3459473925
C        5.9096647822    0.7742043846    0.1910281858
C        3.8354123420    0.1734434769    1.2713793555
C        5.3676157694    0.3938528509   -1.0379942394
C        3.2784060294   -0.2209447857    0.0400085805
C        4.0604105038   -0.1001400537   -1.1308297691
C        1.8700857630   -0.7495810726    0.0729884152
C        1.2736310454   -1.6023570048   -1.0409367438
O        1.1817370469   -0.5623994570    1.0720154821
O        3.5850170708   -0.4302229901   -2.3663127512
H        5.5512228148    0.9613322726    2.3044992416
H        6.9234472655    1.1558849293    0.2485399966
H        3.2594731927    0.0975903050    2.1886606219
H        5.9783432669    0.4912400445   -1.9268868995
H        2.0021429390   -2.3446658264   -1.3768482649
H        0.9848882482   -0.9648485932   -1.8805892096
H        0.3865908567   -2.1271239035   -0.6754385663
H        4.2577060986   -0.2491430235   -3.0442430479
18   

C        4.6333768160    1.9329423987    0.1016786264
C        5.7639059328    1.1271494373   -0.0185698316
C        3.3673870202    1.3994544985   -0.1487914753
C        5.6227471560   -0.2114805933   -0.3929187864
C        3.2150583195    0.0531707736   -0.5233993714
C        4.3596343224   -0.7594388440   -0.6478089121
C        1.8128965991   -0.4423375250   -0.7404684171
C        1.3901683561   -1.8645638046   -0.3936952397
O        0.9522594038    0.3377799710   -1.1334834336
O        4.2780505895   -2.0667810522   -1.0307560704
H        4.7339946921    2.9734951983    0.3893265104
H        6.7477676138    1.5406581633    0.1757532903
H        2.4961276645    2.0397654422   -0.0490805876
H        6.5116931890   -0.8227483374   -0.4862601663
H        1.9515962710   -2.2216958126    0.4735346013
H        1.5804916038   -2.5231804339   -1.2450594262
H        0.3233530348   -1.8887812554   -0.1552789045
H        5.1679977197   -2.4495710203   -1.1106420299
18   

C        4.6038665179    1.9101859709    0.1632565386
C        5.7455798786    1.1228542703    0.0179768324
C        3.3485204632    1.3794519201   -0.1423504704
C        5.6254972644   -0.1946667027   -0.4332674930
C        3.2220406354    0.0596335647   -0.6014095864
C        4.3721697825   -0.7365978496   -0.7421820544
C        1.8346911296   -0.4603524828   -0.8603795496
C        1.3845613749   -1.8153210806   -0.3307935111
O        1.0270533710    0.2333182828   -1.4650992017
O        4.2955817158   -2.0249552930   -1.1863184908
H        4.6882542129    2.9331521451    0.5125742470
H        6.7213269716    1.5335919351    0.2545025801
H        2.4634031374    1.9974366940   -0.0263278269
H        6.5209615997   -0.7939296023   -0.5410020395
H        1.9340127648   -2.0605328815    0.5818684965
H        1.5752748491   -2.5855253739   -1.0825680645
H        0.3151880421   -1.7905128011   -0.1045752494
H        5.1867920384   -2.4005923099   -1.2837860178
18   

C        4.5677681890    1.8358735372    0.2279250905
C        5.7211097658    1.0771152576    0.0291873563
C        3.3209929032    1.3122003974   -0.1228594898
C        5.6201359998   -0.2049570895   -0.5187118094
C        3.2153089642    0.0315659743   -0.6802449048
C        4.3744688171   -0.7369888197   -0.8717092130
C        1.8424448056   -0.5069535345   -0.9982155475
C        1.3227359947   -1.7549967701   -0.2980266707
O        1.1161397421    0.0785887642   -1.7873617398
O        4.3077430231   -1.9915240410   -1.4050437780
H        4.6371519515    2.8311649189    0.6523985955
H        6.6905323401    1.4820474257    0.2993332169
H        2.4257928393    1.9064027784    0.0313098692
H        6.5229384583   -0.7844249833   -0.6661798836
H        1.5658832653   -1.7084864095    0.7665508024
H        1.7834347373   -2.6454578801   -0.7323374506
H        0.2375703742   -1.8244700274   -0.4126318140
H        5.2019927463   -2.3428406381   -1.5520978416
18   

C        4.6407452379    1.8267864086    0.3526210933
C        5.8060269320    1.0973515911    0.1184314774
C        3.4030623344    1.3038490689   -0.0309010369
C        5.7247281179   -0.1547730361   -0.4966320933
C        3.3155562498    0.0559228380   -0.6556509592
C        4.4872822362   -0.6831423373   -0.8816549863
C        1.9654372511   -0.5117718287   -1.0299057302
C        1.3704528831   -1.6467048122   -0.2089596490
O        1.3447822698   -0.0803508760   -1.9876716388
O        4.4351908336   -1.9127836178   -1.4723311114
H        4.6941747771    2.7990209182    0.8295825943
H        6.7687041067    1.5009334222    0.4135539982
H        2.4994924059    1.8767642128    0.1506254389
H        6.6351819675   -0.7148091837   -0.6699235806
H        1.2538531448   -1.3262849666    0.8294244332
H        2.0321267077   -2.5158535061   -0.2421397736
H        0.3926792334   -1.9285694431   -0.6093681713
H        5.3327484847   -2.2407705315   -1.6491176024
18   

C        4.6248892668    1.7745558722    0.4295401733
C        5.8108742177    1.0983048332    0.1447063622
C        3.4005361016    1.2315423130    0.0308123680
C        5.7631400340   -0.1218561652   -0.5345105793
C        3.3466797739    0.0168816565   -0.6579505931
C        4.5387636012   -0.6692658090   -0.9339329520
C        2.0198763456   -0.5797356977   -1.0753633099
C        1.2887905477   -1.5108246311   -0.1210727798
O        1.5206570610   -0.3175839679   -2.1559872953
O        4.5151575226   -1.8730339696   -1.5773387793
H        4.6524069275    2.7216788453    0.9565907766
H        6.7633749321    1.5175501549    0.4507926688
H        2.4818685293    1.7654946902    0.2502824435
H        6.6885636010   -0.6432196083   -0.7451354998
H        1.1277901584   -1.0074188799    0.8355408957
H        1.8905380325   -2.4085653827    0.0435623279
H        0.3221832332   -1.8001806555   -0.5427704135
H        5.4178807984   -2.1576899007   -1.7965590406
18   

C        4.6013855946    1.6757170829    0.5019552724
C        5.8138783916    1.0740238831    0.1664641395
C        3.3982152900    1.0905254321    0.0986739630
C        5.8143188611   -0.1140580887   -0.5688153913
C        3.3916856427   -0.0971020480   -0.6391016682
C        4.6117914277   -0.7049138313   -0.9729665369
C        2.0871838922   -0.7101778706   -1.0964170613
C        1.1356209512   -1.2997711577   -0.0663160818
O        1.7301550443   -0.6361832941   -2.2595425139
O        4.6386702158   -1.8760920184   -1.6734220447
H        4.5922985791    2.5995606091    1.0694277793
H        6.7500530198    1.5271055996    0.4746885893
H        2.4605692352    1.5735496967    0.3525744515
H        6.7604453766   -0.5765523534   -0.8208546099
H        1.0916668151   -0.6580172405    0.8170439856
H        1.4931200946   -2.2895000988    0.2299052824
H        0.1322829800   -1.3936061971   -0.4909325560
H        5.5465804709   -2.0886073804   -1.9453017444
18   

C        4.5873769401    1.5891787068    0.5710030023
C        5.8160857256    1.0573664834    0.1832783077
C        3.4013773660    0.9691332496    0.1695989583
C        5.8506140497   -0.0972988676   -0.6016724953
C        3.4262035409   -0.1879580558   -0.6189376908
C        4.6666469808   -0.7254585008   -1.0048189752
C        2.1378869441   -0.8202344679   -1.0829247623
C        1.0683738858   -1.1964377495   -0.0661122715
O        1.8879807669   -0.9476320896   -2.2702253857
O        4.7369425660   -1.8663151870   -1.7506790608
H        4.5521594760    2.4877255921    1.1768116461
H        6.7387814599    1.5386785959    0.4893627475
H        2.4546726665    1.4086709842    0.4640784003
H        6.8099936881   -0.5059995375   -0.8934522530
H        0.9027600106   -0.3783770208    0.6383454293
H        1.3913748166   -2.0829375701    0.4860608635
H        0.1274384837   -1.4194565712   -0.5769826471
H        5.6446561327   -2.0152494984   -2.0614426371
18   

C        4.5896341720    1.4929910412    0.6481590808
C        5.8229804557    1.0375991731    0.1887726213
C        3.4169433033    0.8414435645    0.2592721180
C        5.8756164145   -0.0743787981   -0.6531175832
C        3.4536729761   -0.2734179294   -0.5920953886
C        4.7060734482   -0.7363167431   -1.0453527576
C        2.1758319672   -0.9312762710   -1.0345160578
C        1.0531049019   -1.1592907088   -0.0315612558
O        1.9925979962   -1.2542376615   -2.1979606306
O        4.8118149012   -1.8395186627   -1.8419023603
H        4.5398555214    2.3567566914    1.3016830798
H        6.7356600653    1.5434717925    0.4851597456
H        2.4673310134    1.2240328269    0.6168936555
H        6.8402145013   -0.4256923851   -0.9976819318
H        0.5363878399   -0.2181179262    0.1714440787
H        1.4657302283   -1.5555582649    0.9000846263
H        0.3356775026   -1.8805300407   -0.4332037124
H        5.7172440394   -1.9336579679   -2.1785108042
18   

C        4.5826632167    1.4237069142    0.7108281031
C        5.8176382377    1.0461819025    0.1930186264
C        3.4274337081    0.7374722381    0.3308361422
C        5.8899833675   -0.0242297791   -0.6980376148
C        3.4775569990   -0.3374059328   -0.5740333023
C        4.7395327100   -0.7229812757   -1.0840154973
C        2.2133872515   -1.0303569648   -0.9864765866
C        1.0264260676   -1.0897586659   -0.0326454892
O        2.0871653499   -1.5527736810   -2.0846796626
O        4.8844434282   -1.7840943686   -1.9299149829
H        4.5174260526    2.2542804990    1.4048018058
H        6.7168346378    1.5792300007    0.4829619893
H        2.4800889571    1.0673826096    0.7423462455
H        6.8577378321   -0.3155375066   -1.0868882102
H        0.4810625676   -0.1429473914   -0.0592291306
H        1.3745462768   -1.2829992696    0.9855318905
H        0.3512048804   -1.8974029350   -0.3294582007
H        5.7934630662   -1.8355861589   -2.2650854971
18   

C        4.6207900367    1.3814591141    0.7150207802
C        5.8377373845    1.0479811146    0.1324739572
C        3.4647988220    0.6795402156    0.3686603171
C        5.8910278863    0.0068743114   -0.7919492467
C        3.4892121383   -0.3712249734   -0.5686232400
C        4.7405654482   -0.7083132865   -1.1476940133
C        2.2250232610   -1.0910941863   -0.9251415909
C        0.9827395339   -0.9537662304   -0.0512911301
O        2.1364666913   -1.8138890230   -1.9086446949
O        4.8848073330   -1.7305616428   -2.0401900310
H        4.5697222896    2.1894924869    1.4362837095
H        6.7377644588    1.5924497319    0.3975956739
H        2.5379597969    0.9820618788    0.8421447990
H        6.8462522175   -0.2483905061   -1.2335672566
H        0.5472086220    0.0407830330   -0.1775933088
H        1.2438554542   -1.1115397539    0.9984648041
H        0.2392606958   -1.7023745655   -0.3401064148
H        5.7951709605   -1.7736718170   -2.3721084466
18   

C        4.6296201024    1.3631536874    0.7326776810
C        5.8322206615    1.0850063743    0.0954469293
C        3.4864214599    0.6250096212    0.4213919426
C        5.8829987890    0.0661348447   -0.8527034539
C        3.5073892624   -0.4113221858   -0.5332159435
C        4.7452474054   -0.6839004886   -1.1766033218
C        2.2589105601   -1.1798849009   -0.8387197265
C        0.9501179797   -0.8554549086   -0.1252594608
O        2.2285397163   -2.0876898648   -1.6594186106
O        4.8890443312   -1.6621162502   -2.1171690481
H        4.5801025270    2.1545148065    1.4723126590
H        6.7226535020    1.6565268972    0.3347956464
H        2.5753353086    0.8835827859    0.9479434284
H        6.8262915245   -0.1410744545   -1.3425141886
H        0.6576814499    0.1772124233   -0.3326086103
H        1.0667094263   -0.9982211975    0.9522097694
H        0.1566413536   -1.5196081565   -0.4802675683
H        5.8023436763   -1.6989123582   -2.4413937941
