14   

C       -1.7011906766   -0.2959297128    0.1205183880
C        0.4076507823   -0.7134711401    0.1434816868
C        1.7730573129   -1.3318565289    0.0555675803
C        0.2773311457    0.8242679608    0.1942988081
N        1.3613768706    2.0365411311   -1.9197179524
N       -1.1913227728    0.9108315021    0.1723608070
N       -0.7573022361   -1.3064993093    0.0911873262
N        0.8682059240    1.4878203164   -0.9739551745
N        1.8227321580   -2.6275193672   -0.2958711529
O        2.7942452435   -0.6755387987    0.1547569300
H       -2.7725679671   -0.4822411218    0.0993071461
H        0.7080036202    1.2170656311    1.1249221872
H        2.7417109821   -3.0533834068   -0.3786893360
H        0.9749153078   -3.1821536012   -0.3713887675
14   

C       -1.7273877638   -0.3290658331    0.1096026905
C        0.3844786400   -0.7221975334    0.2211090475
C        1.7549254493   -1.3379939925    0.1760723541
C        0.2360204193    0.8170008366    0.1814011877
N        1.3688823220    1.9233676584   -1.9647649761
N       -1.2320604316    0.8847993410    0.1134059349
N       -0.7725795823   -1.3288753928    0.1532968237
N        0.8551173257    1.4210104631   -1.0042647952
N        1.8391590504   -2.5547442420   -0.3971478306
O        2.7631821470   -0.6933509774    0.4006163235
H       -2.7958366377   -0.5288625552    0.0707329517
H        0.6353765429    1.2651071740    1.1010752252
H        2.7656385983   -2.9654077498   -0.4741422138
H        1.0039933829   -3.1060425617   -0.5720882906
14   

C       -1.7313595952   -0.3398433186    0.0281136861
C        0.3690076636   -0.7524051844    0.2530198917
C        1.7269031564   -1.4014634872    0.2965033448
C        0.2382949966    0.7905043621    0.1545090687
N        1.4562144818    1.8098709694   -1.9879965013
N       -1.2248270712    0.8693738543    0.0240006954
N       -0.7897419848   -1.3473224041    0.1351038553
N        0.9068569852    1.3452489547   -1.0281119352
N        1.8911293754   -2.4848975083   -0.4952976491
O        2.7050863236   -0.8111648106    0.7159461471
H       -2.7993844992   -0.5307755012   -0.0484043631
H        0.6068742414    1.2664717031    1.0732305442
H        2.8230536855   -2.8900852528   -0.5202941663
H        1.0864239764   -3.0090155118   -0.8261520509
14   

C       -1.7346141427   -0.2961793143   -0.0345959362
C        0.3474558878   -0.7520451430    0.2677182009
C        1.6803901280   -1.4461387210    0.3928176440
C        0.2566422194    0.7940776668    0.1112689789
N        1.5279654457    1.7105694221   -2.0465451186
N       -1.2007090150    0.9011419907   -0.0569770722
N       -0.8201735367   -1.3216457533    0.1231761641
N        0.9571864569    1.2908144637   -1.0784331517
N        1.9729381869   -2.3616467768   -0.5622428206
O        2.5966594670   -0.9442948991    1.0160007651
H       -2.8046864109   -0.4650568895   -0.1313719810
H        0.6169615295    1.2942736798    1.0205476284
H        2.9052102744   -2.7647642717   -0.5154208424
H        1.2279043657   -2.8434255521   -1.0562217770
14   

C       -1.7534601808   -0.2775835244   -0.0181776330
C        0.3180538823   -0.7738718897    0.2958949870
C        1.6277624011   -1.5074585558    0.4643432764
C        0.2640426328    0.7698119380    0.0774664115
N        1.5299622573    1.5785126157   -2.1261756695
N       -1.1911241362    0.9049256093   -0.0884263385
N       -0.8635297340   -1.3180776005    0.1743074024
N        0.9633874791    1.2058917350   -1.1364379046
N        2.0526648457   -2.2348355626   -0.6018773895
O        2.4640875299   -1.1257539155    1.2600459300
H       -2.8278142836   -0.4242752648   -0.1028247954
H        0.6402126244    1.2970170012    0.9649391433
H        2.9793065811   -2.6416392997   -0.4997211468
H        1.3782057988   -2.6581760272   -1.2315788841
14   

C       -1.7680026474   -0.2460654594    0.0784273545
C        0.2996597480   -0.7920059971    0.3356095833
C        1.5871909244   -1.5656348305    0.5192980856
C        0.2807000240    0.7442573086    0.0490003350
N        1.4763639504    1.4389579902   -2.2315874370
N       -1.1751224057    0.9140323126   -0.0720652707
N       -0.9019325315   -1.3019458369    0.2908929245
N        0.9425212510    1.1158806459   -1.2067319563
N        2.1277107170   -2.0930091785   -0.6171458446
O        2.3326446863   -1.3501076821    1.4545835721
H       -2.8484759043   -0.3646071086    0.0401527722
H        0.6993767950    1.2988095382    0.9000639498
H        3.0428253371   -2.5170022026   -0.4815932025
H        1.5209699196   -2.4350997099   -1.3552395818
14   

C       -1.7830052881   -0.1865548483    0.2354850707
C        0.2774416643   -0.8051179342    0.3704896714
C        1.5384658250   -1.6240434986    0.5644918811
C        0.2934019919    0.7187467279    0.0131790579
N        1.3402332144    1.3014626611   -2.3699758291
N       -1.1600923557    0.9389916605   -0.0203969324
N       -0.9433418683   -1.2615064780    0.4521813371
N        0.8745246316    1.0259015504   -1.2988548441
N        2.1992214636   -1.9494307370   -0.5922723189
O        2.1516272567   -1.6505187318    1.6129160138
H       -2.8671063535   -0.2648745402    0.2750044820
H        0.7827979445    1.2946889155    0.8105421014
H        3.0900499095   -2.4141983133   -0.4275341547
H        1.6722437244   -2.1727339738   -1.4295680942
14   

C       -1.7822555282   -0.0886974121    0.4086007280
C        0.2545751482   -0.8047040013    0.3858589030
C        1.4831073331   -1.6721015969    0.5933588622
C        0.3027634664    0.7012822517   -0.0464225339
N        1.1194795804    1.1642425698   -2.5437548118
N       -1.1360670476    0.9906565765    0.0378684578
N       -0.9729453860   -1.1864144545    0.6172723378
N        0.7596553215    0.9387100808   -1.4210048013
N        2.2774708666   -1.8110286572   -0.5236492329
O        1.8931404449   -2.0366518863    1.6770948646
H       -2.8611086766   -0.1146579680    0.5442038339
H        0.8848568940    1.2910963692    0.6746656773
H        3.1183640341   -2.3561849197   -0.3406688191
H        1.8619076357   -1.8461852962   -1.4466219621
14   

C       -1.7614640483   -0.0206262465    0.5550611566
C        0.2390099571   -0.8274062185    0.3870258388
C        1.4329334211   -1.7487110592    0.5755436052
C        0.3093620072    0.6659019749   -0.0871899648
N        0.8673471767    1.0463499063   -2.6691948674
N       -1.1016724444    1.0233567980    0.1149728065
N       -0.9825147381   -1.1446810287    0.7263879068
N        0.6280767312    0.8558181872   -1.5079563934
N        2.3557810668   -1.7023535717   -0.4539749633
O        1.6538273380   -2.4247434455    1.5605227056
H       -2.8264391210    0.0005613252    0.7749731693
H        0.9802666122    1.2495687833    0.5574959351
H        3.1469034623   -2.3252567481   -0.2974907184
H        2.0863416962   -1.4777136519   -1.4020347612
14   

C       -1.7440538491    0.0401261440    0.6212262905
C        0.2232454515   -0.8375290676    0.3737468881
C        1.3764366113   -1.8157945417    0.5457294184
C        0.3118612943    0.6465596772   -0.1325364808
N        0.6858540715    0.9195352912   -2.7619210921
N       -1.0711941107    1.0579606507    0.1424739677
N       -0.9940593697   -1.1057816763    0.7691664032
N        0.5335432003    0.7803543552   -1.5784220591
N        2.4332023924   -1.6226293154   -0.3283450838
O        1.4315914136   -2.7110753759    1.3656539854
H       -2.7960380863    0.0978543109    0.8913690460
H        1.0418880777    1.2240893709    0.4502207258
H        3.1839350104   -2.3009877956   -0.2071626894
H        2.3880195632   -1.0649978851   -1.1684653104
14   

C       -1.7418873767   -0.3644459852   -0.1653208254
C        0.3485540042   -0.7484078713    0.2830202006
C        1.6090552851   -1.5423752629    0.5939521648
C        0.1247883611    0.8000940600    0.3898817965
N        1.3787923359    2.1746228447   -1.5254215858
N       -1.3121588863    0.8463084560    0.0918919630
N       -0.7705431529   -1.3347124838   -0.0574971167
N        0.8298233778    1.5509182838   -0.6575913260
N        2.7542834529   -0.7673156778    0.7026709921
O        1.6982908779   -2.7536593490    0.6408150316
H       -2.7740184701   -0.5862659278   -0.4270312527
H        0.3509185697    1.1762088588    1.3959884576
H        3.5973945357   -1.3152164468    0.8687496155
H        2.7787073055    0.2382321452    0.7907977678
14   

C       -1.7513685665   -0.3569983058   -0.1102417573
C        0.3455043941   -0.7562158356    0.2806253148
C        1.6294302241   -1.5332064724    0.5137434681
C        0.1503806891    0.7957634342    0.3433430871
N        1.4001035178    2.0680326383   -1.6437232571
N       -1.2941369925    0.8553194358    0.0863414163
N       -0.7916481736   -1.3387992216    0.0000803403
N        0.8496380621    1.4925645885   -0.7443456978
N        2.7221039350   -0.7306094263    0.8123324212
O        1.7838757023   -2.7280166492    0.3537965837
H       -2.7948392662   -0.5707229860   -0.3304538518
H        0.4074568225    1.2016356414    1.3296617053
H        3.5811579226   -1.2648750461    0.9366455337
H        2.6632768043    0.2087813111    1.1800311546
14   

C       -1.7647352303   -0.3478534254   -0.0313261617
C        0.3426580357   -0.7366986184    0.2981037189
C        1.6517761835   -1.4883338979    0.4544104601
C        0.1542394689    0.8166830181    0.3084826950
N        1.3690277401    1.9948682448   -1.7560842225
N       -1.2982378398    0.8702306518    0.0981508394
N       -0.8034821256   -1.3284208662    0.0824254458
N        0.8317420342    1.4628082847   -0.8229358680
N        2.6887786218   -0.7091008631    0.9405229988
O        1.8673735351   -2.6302876963    0.0992122332
H       -2.8158748448   -0.5663111927   -0.2056339849
H        0.4435860926    1.2595635961    1.2690816860
H        3.5616740627   -1.2292499970    1.0198199922
H        2.5496095038    0.1060120706    1.5230783638
14   

C       -1.7517004006   -0.3385321663    0.0232249899
C        0.3658459686   -0.7068239256    0.2950943158
C        1.6941680767   -1.4335579347    0.3945407396
C        0.1715100070    0.8460139922    0.2580722620
N        1.3303981562    1.9419772117   -1.8820123975
N       -1.2877439315    0.8855130801    0.0955667826
N       -0.7822818938   -1.3119431996    0.1368536271
N        0.8167725765    1.4476627978   -0.9155404223
N        2.6691108802   -0.7380782834    1.0790351526
O        1.9703983959   -2.4820107141   -0.1541339939
H       -2.8070274302   -0.5664883907   -0.1083698152
H        0.4937233443    1.3236677180    1.1909723370
H        3.5512296507   -1.2460555567    1.1258007211
H        2.4533511524   -0.0664562307    1.8053457606
14   

C       -1.7473082181   -0.3422133611    0.0959613827
C        0.3815438403   -0.6771151668    0.2972371969
C        1.7274310793   -1.3741258488    0.3559239051
C        0.1693303269    0.8719650175    0.2097125435
N        1.2416413860    1.8802389267   -2.0165319825
N       -1.2959725108    0.8888814966    0.1058955100
N       -0.7629906435   -1.3019472337    0.2073897205
N        0.7657343584    1.4266655959   -1.0116470294
N        2.6324487356   -0.8119915624    1.2206433041
O        2.0793927416   -2.2681717127   -0.3881218298
H       -2.8042896292   -0.5852306130    0.0139729008
H        0.5283110329    1.3879307055    1.1083154491
H        3.5268333759   -1.2994103850    1.2328703734
H        2.3431936723   -0.2953117891    2.0430393100
14   

C       -1.6973090677   -0.3432891752    0.1734441194
C        0.4404894801   -0.6331122577    0.2944091480
C        1.8085438749   -1.2822926151    0.3324212919
C        0.2002034656    0.9080628477    0.1638755492
N        1.1845111716    1.8325383616   -2.1377291469
N       -1.2685903507    0.8950476212    0.1191649431
N       -0.6926069647   -1.2834670113    0.2834254642
N        0.7458945687    1.4191469074   -1.0992920164
N        2.6231474973   -0.8926953201    1.3556022831
O        2.2817421676   -1.9034869877   -0.5991454430
H       -2.7523774743   -0.6056439525    0.1420826181
H        0.5903890405    1.4592900512    1.0281884921
H        3.5473366645   -1.3190126259    1.3262785683
H        2.2487997832   -0.5803062386    2.2449140160
14   

C       -1.6792619931   -0.3261302882    0.2997706086
C        0.4597158670   -0.5986504840    0.3087769703
C        1.8439117054   -1.2027690333    0.3335417871
C        0.2068037792    0.9306732103    0.1116478431
N        1.0999946685    1.7223574851   -2.2745160895
N       -1.2627908281    0.9077109480    0.1413730394
N       -0.6637878441   -1.2551621455    0.4197690686
N        0.6985609474    1.3712772647   -1.1990725878
N        2.5802614216   -1.0076679452    1.4574601454
O        2.4277078593   -1.5081793594   -0.6889113408
H       -2.7330006911   -0.5926396840    0.3395388658
H        0.6380228555    1.5243235193    0.9272665701
H        3.5334924444   -1.3594809168    1.4000292799
H        2.1394545167   -0.8986445909    2.3649304707
14   

C       -1.6501912060   -0.3072766908    0.4359483827
C        0.4856122177   -0.5627934452    0.3410906135
C        1.8849345913   -1.1207718136    0.3602427515
C        0.2110497949    0.9472073669    0.0661652440
N        1.0081515099    1.6141305491   -2.3906170537
N       -1.2557216093    0.9142165339    0.1652679005
N       -0.6195194421   -1.2178283652    0.5750838810
N        0.6462261249    1.3197507779   -1.2848816698
N        2.5459333391   -1.1279410189    1.5393450526
O        2.5488038657   -1.1764182792   -0.6584426136
H       -2.6979997334   -0.5773971972    0.5459269437
H        0.6725187146    1.5874485482    0.8284272990
H        3.5174814437   -1.4246146649    1.4855133576
H        2.0473292027   -1.1800954481    2.4218966050
14   

C       -1.6190794412   -0.2698699885    0.5164526825
C        0.5117357388   -0.5169950385    0.3501013812
C        1.9224868327   -1.0388321313    0.3794549617
C        0.2160623447    0.9676361074   -0.0085262956
N        0.9272955452    1.5110952526   -2.5211142021
N       -1.2462806345    0.9313802466    0.1444148622
N       -0.5748951867   -1.1609137304    0.6823498043
N        0.6015022960    1.2708171231   -1.3915892004
N        2.4964020544   -1.2534288673    1.5800398381
O        2.6552778240   -0.9070076881   -0.5841404309
H       -2.6597225214   -0.5382167427    0.6838258982
H        0.6979460017    1.6540555628    0.6991285329
H        3.4777145969   -1.5191264954    1.5573844599
H        1.9349091918   -1.4329191498    2.4065264168
14   

C       -1.5892520114   -0.2581413649    0.5702289444
C        0.5419548465   -0.4705212327    0.3761538444
C        1.9677113205   -0.9442189985    0.4209996901
C        0.2114892658    0.9814541624   -0.0582800305
N        0.8657859866    1.4235386698   -2.6058339846
N       -1.2472844305    0.9261988774    0.1228518112
N       -0.5238607164   -1.1175127781    0.7667030420
N        0.5643554345    1.2264885086   -1.4614739879
N        2.4545427461   -1.3685678446    1.6010429526
O        2.7567420197   -0.6483222611   -0.4584800461
H       -2.6211270832   -0.5359803458    0.7727464122
H        0.6918713301    1.7130106346    0.6039048598
H        3.4423595133   -1.6081413767    1.6195947171
H        1.8351143282   -1.6641113637    2.3493051384
14   

C       -1.7185987149   -0.3035629780    0.1116253224
C        0.3696438190   -0.7438078203   -0.1461933379
C        1.7067045497   -1.3940819814   -0.3581411197
C        0.2963067926    0.7348939343    0.3039455367
N        1.2683817882    2.3992377691   -1.5395614987
N       -1.1666782936    0.8474639089    0.4115230123
N       -0.8121578826   -1.2992318789   -0.2036924408
N        0.8240453859    1.6527842240   -0.7123226245
N        1.8863852030   -2.6263303012    0.1450787747
O        2.6768809547   -0.7536055122   -0.7222089019
H       -2.7949666689   -0.4597718708    0.1161076199
H        0.8035266120    0.8797660245    1.2664846841
H        2.8151376646   -3.0282418607    0.0501867790
H        1.0973110907   -3.1955506759    0.4360632260
14   

C       -1.7060137054   -0.2981552832    0.1122724206
C        0.3901938733   -0.7301349238   -0.0835396648
C        1.7393819386   -1.3651612835   -0.2542185729
C        0.2961868070    0.7704192003    0.2705846787
N        1.2759852816    2.3383136749   -1.6517460037
N       -1.1693147968    0.8739466883    0.3516912019
N       -0.7855009247   -1.2999829895   -0.1358313818
N        0.8281765177    1.6337060054   -0.7904735995
N        1.8506531664   -2.6666299661    0.0501410765
O        2.7390580061   -0.7063091191   -0.4794470702
H       -2.7807440187   -0.4653473733    0.1132301344
H        0.7886859764    0.9785941904    1.2293110305
H        2.7752298817   -3.0822418434   -0.0224708862
H        1.0297376539   -3.2368147828    0.2308171205
14   

C       -1.7037634502   -0.2952740327    0.1268238165
C        0.3984774884   -0.7219934193   -0.0024243345
C        1.7559785486   -1.3451779884   -0.1433545785
C        0.2885924185    0.7959980554    0.2512724117
N        1.2893402229    2.2532927370   -1.7458858139
N       -1.1787426797    0.8931579449    0.3030109901
N       -0.7726531714   -1.3022582361   -0.0512105510
N        0.8323942136    1.5969621915   -0.8519293674
N        1.8288888149   -2.6803349572   -0.0529481647
O        2.7696841834   -0.6783199464   -0.2522314635
H       -2.7771964739   -0.4705826812    0.1234140868
H        0.7638813309    1.0675012132    1.2029655310
H        2.7501061340   -3.1036687923   -0.1225552851
H        0.9913970404   -3.2483653884    0.0356625863
14   

C       -1.7056256367   -0.3041927104    0.1204200528
C        0.4025670370   -0.7196837734    0.0677136265
C        1.7671851627   -1.3332383370   -0.0468988937
C        0.2749303119    0.8107605644    0.2196947955
N        1.3111627966    2.1516879466   -1.8399229398
N       -1.1938671533    0.8975305239    0.2342301302
N       -0.7631504713   -1.3111635850    0.0172270051
N        0.8387429471    1.5463629494   -0.9184387522
N        1.8233543802   -2.6665452237   -0.1770542315
O        2.7855480522   -0.6647881952   -0.0503425278
H       -2.7773461391   -0.4892967178    0.1078186298
H        0.7263747558    1.1454959098    1.1629525125
H        2.7434780818   -3.0913052839   -0.2519768705
H        0.9787542862   -3.2310623794   -0.1715173706
