19   

C        5.6932583933    1.6988651736    0.7937899876
C        4.4444893637    1.8922220996    0.2899221071
C        5.3732873779    0.0755162514   -0.6115990430
C        4.9166906812   -1.4365495204   -2.4760919078
C        4.0965900298   -0.4281259771   -3.2747121785
C        6.6449919524   -2.0267880464   -0.8312337216
N        6.2426614472    0.5560266551    0.2393304824
N        4.2239937924    0.8639721530   -0.6137659817
N        5.6143152192   -1.1089326371   -1.3224836136
O        4.9361914834   -2.5756203117   -2.9329356719
H        6.1783294246    2.3383919030    1.5221221930
H        3.7669564507    2.6907611998    0.5696054940
H        3.9490834363   -0.7739635667   -4.3016199402
H        4.5021735015    0.5838111494   -3.2004387755
H        3.0979273980   -0.3904986937   -2.8342250725
H        6.3421385021   -2.3833033492    0.1584533470
H        7.5566267205   -1.4798703521   -0.5704549099
H        6.8443279762   -2.8760074020   -1.4924186748
H        3.3807236507    0.6742997033   -1.1422632855
19   

C        5.5840418926    1.8672255879    0.8676390572
C        4.3115659684    1.9507642934    0.3920841647
C        5.3624324283    0.1998571563   -0.5022440921
C        4.8780776198   -1.4233730131   -2.2495734966
C        4.0633742173   -0.4795475189   -3.1278604375
C        6.7439390963   -1.8383280524   -0.7033787331
N        6.2122654211    0.7643820563    0.3155468925
N        4.1526053710    0.8920317290   -0.4892569958
N        5.6782826483   -0.9723307117   -1.2065249782
O        4.7801427372   -2.6183592180   -2.5110049425
H        6.0329069316    2.5552580309    1.5747906491
H        3.5786743096    2.6977470213    0.6747766320
H        3.9992343315   -0.8816818633   -4.1426643159
H        4.4104818459    0.5556998721   -3.0838403542
H        3.0248119399   -0.5262884255   -2.7923080079
H        6.3873794774   -2.2954530595    0.2253331403
H        7.6030453011   -1.2596855614   -0.3497174515
H        7.0118255132   -2.6435977681   -1.3949649653
H        3.3159474632    0.6268452621   -0.9959928978
19   

C        5.5880847221    1.8985555366    0.8617685373
C        4.2964240544    1.9089961144    0.4313664204
C        5.4151098978    0.2256854549   -0.5053914305
C        4.8711577468   -1.4411266316   -2.1636188214
C        4.0915045037   -0.5355333769   -3.1102415222
C        6.8454339583   -1.7758612457   -0.7223685515
N        6.2608902321    0.8367315371    0.2819407251
N        4.1676677383    0.8452009963   -0.4489547592
N        5.7751718560   -0.9236080095   -1.2311708678
O        4.6331686674   -2.6415839076   -2.2340100888
H        6.0204323237    2.6093350350    1.5566455325
H        3.5316325762    2.6112490463    0.7427817921
H        4.1287270685   -0.9675321066   -4.1138817560
H        4.4179569770    0.5073030454   -3.0878514840
H        3.0261213039   -0.6392886612   -2.8910236615
H        6.4917170355   -2.2311892187    0.2085394799
H        7.7055825832   -1.1887256571   -0.3855511457
H        7.1026480606   -2.5888208581   -1.4089485047
H        3.3308491638    0.5326797577   -0.9283868160
19   

C        5.5870946289    1.8281483740    0.8928247126
C        4.2798781858    1.8749530698    0.5135307003
C        5.3471178713    0.2494919533   -0.5699617350
C        4.6429329038   -1.3052398148   -2.2444158041
C        3.9662263375   -0.3481652240   -3.2173766795
C        6.6817501307   -1.7900035694   -0.9227561130
N        6.2290813217    0.8022872668    0.2202127710
N        4.1080252899    0.8720192287   -0.4288337272
N        5.6677691131   -0.8520849436   -1.3887237520
O        4.1975095308   -2.4435198834   -2.1805191631
H        6.0511940700    2.4894285346    1.6155238548
H        3.5334179038    2.5596553302    0.8994926817
H        4.0938198409   -0.7582567487   -4.2225777830
H        4.3522545303    0.6732272530   -3.1648771748
H        2.8811827663   -0.4240166111   -3.1119564438
H        6.3179851228   -2.2428046094    0.0057240935
H        7.5905024431   -1.2710377382   -0.6018153369
H        6.8618253307   -2.5998427957   -1.6368465608
H        3.2509910870    0.5945823099   -0.8946619273
19   

C        5.6169185436    1.8366242257    0.8640555683
C        4.2929083054    1.8414748909    0.5436302828
C        5.3603596102    0.2449684055   -0.5795970216
C        4.5605545391   -1.3186584418   -2.1670368232
C        3.9584931545   -0.4345089943   -3.2495876840
C        6.6709340222   -1.7996562996   -0.9348549567
N        6.2604555150    0.8279039550    0.1669874848
N        4.1098677603    0.8298266952   -0.3873266260
N        5.6770593074   -0.8496166292   -1.4150290401
O        3.9705948559   -2.3516530787   -1.8858742668
H        6.0917725656    2.5152170120    1.5633204232
H        3.5432202227    2.5032934354    0.9617786018
H        4.2588992113   -0.8659936049   -4.2077869130
H        4.3368174748    0.5907579053   -3.2213471695
H        2.8706445727   -0.5364992724   -3.2763124975
H        6.3060027715   -2.2249684153    0.0062614758
H        7.5984810388   -1.2949932058   -0.6463548892
H        6.8197734955   -2.6291327163   -1.6331746026
H        3.2418887511    0.5191908822   -0.8110826047
19   

C        5.3806107832    1.5835416573    0.9277693957
C        4.0299563740    1.5967873438    0.7378551535
C        4.9345603535   -0.1842832973   -0.2290727010
C        4.0964539167   -1.4620856498   -2.0321278832
C        4.5362943698   -1.1926533609   -3.4620979874
C        6.3987560485   -1.8955710117   -1.1565997294
N        5.9273995328    0.4621886339    0.3235152507
N        3.7276075669    0.4661506534   -0.0071789145
N        5.0462206217   -1.3963375084   -0.9376130915
O        2.9913703967   -1.9307127146   -1.8440063064
H        5.9416538416    2.3342760122    1.4726237942
H        3.3419846502    2.3435586830    1.1171912618
H        5.1752181104   -2.0194261386   -3.7804327235
H        5.2098128292   -0.3322029342   -3.4953749549
H        3.6830641224   -1.1336092681   -4.1430919767
H        6.9322850137   -1.9996897217   -0.2059743328
H        6.9723906920   -1.1379931073   -1.7014923614
H        6.4051812502   -2.8127220881   -1.7536582879
H        2.8226540799    0.1144531190   -0.3128842181
19   

C        5.4550765791    1.6994535333    1.1008451857
C        4.1059503826    1.7455853713    0.9054108998
C        4.9817401502   -0.0178923634   -0.1203545616
C        4.0961799830   -1.3096867484   -1.9090743072
C        4.4989608918   -1.3981005783   -3.3733417474
C        6.4276859286   -1.7191722018   -1.1087530652
N        5.9839728298    0.5901055138    0.4591969793
N        3.7874591220    0.6478094423    0.1193953548
N        5.0813666212   -1.2066627918   -0.8747583365
O        2.9405227524   -1.5771159500   -1.6213254392
H        6.0275699821    2.4194074414    1.6745481963
H        3.4296627926    2.4917720820    1.3060470025
H        4.9659996151   -2.3717671340   -3.5374473077
H        5.3009769296   -0.6888241463   -3.5934888131
H        3.6306650131   -1.3245638786   -4.0336406210
H        6.9817758561   -1.8046614696   -0.1679866477
H        6.9924165132   -0.9710879838   -1.6755192340
H        6.4256550420   -2.6449988735   -1.6917726281
H        2.8808818557    0.3196727058   -0.2096275817
19   

C        5.4762258738    1.6634481166    1.2578720932
C        4.1333754160    1.7512828605    1.0370960299
C        4.9988616880    0.0445760554   -0.0923241671
C        4.1121311346   -1.2190488885   -1.9218711512
C        4.4692235171   -1.5536613044   -3.3632445848
C        6.4534973167   -1.6113296975   -1.1599583478
N        5.9985090319    0.5913597626    0.5505476763
N        3.8139549015    0.7177951483    0.1690849941
N        5.1095229229   -1.0878165116   -0.9286517277
O        2.9308420519   -1.3103564484   -1.6040316861
H        6.0491630755    2.3293624629    1.8930809339
H        3.4617297169    2.4819860434    1.4723595756
H        4.7755400750   -2.6018044610   -3.3965461768
H        5.3598371809   -1.0068385453   -3.6830788460
H        3.6049947067   -1.4448191432   -4.0240364864
H        6.9995219640   -1.7209806073   -0.2169447933
H        7.0310077523   -0.8496586472   -1.6948020217
H        6.4582703504   -2.5198583845   -1.7690985196
H        2.9123701077    0.4291935197   -0.2091110850
19   

C        5.4768690654    1.5961195074    1.3806817321
C        4.1395345415    1.7182390213    1.1460441793
C        5.0035037291    0.0884007536   -0.0974115213
C        4.1268874998   -1.1481314393   -1.9718924009
C        4.4380506479   -1.6601635115   -3.3721723122
C        6.4770340443   -1.5041314270   -1.2420788984
N        5.9979014927    0.5743388083    0.6015717985
N        3.8242373204    0.7574121304    0.1973040390
N        5.1323807022   -0.9753308119   -1.0157764821
O        2.9373507385   -1.0866521317   -1.6585741076
H        6.0471818434    2.2043578550    2.0734699133
H        3.4689524598    2.4238272051    1.6222898943
H        4.6957992762   -2.7188477804   -3.2911964861
H        5.3493329533   -1.2011669567   -3.7636921377
H        3.5697350683   -1.5770824462   -4.0313809837
H        7.0151421114   -1.6339376604   -0.2970494928
H        7.0637769218   -0.7293834947   -1.7471403920
H        6.4946870020   -2.3967105899   -1.8735347415
H        2.9287944231    0.5102097425   -0.2235673438
19   

C        5.4666468252    1.5451399449    1.4635343029
C        4.1306808968    1.6814623960    1.2317865621
C        5.0025798761    0.1387882149   -0.1175211257
C        4.1332255639   -1.0898058520   -2.0166086406
C        4.3993313556   -1.7503403308   -3.3638177426
C        6.5008525928   -1.3796550838   -1.3312951476
N        5.9923565026    0.5802219910    0.6179958672
N        3.8224254086    0.7865685598    0.2187981881
N        5.1519447675   -0.8567666889   -1.1037988212
O        2.9480130095   -0.8983332830   -1.7273491415
H        6.0332236590    2.1052182155    2.1986976664
H        3.4568061835    2.3541105066    1.7491709388
H        4.6682285841   -2.7934781130   -3.1807021320
H        5.3001662745   -1.3392547305   -3.8262535817
H        3.5156762470   -1.7250131896   -4.0072505036
H        7.0350124203   -1.5263505642   -0.3864951168
H        7.0895932279   -0.5881441933   -1.8069874809
H        6.5368563514   -2.2567199724   -1.9826263145
H        2.9318632802    0.5706492341   -0.2293813675
19   

C        5.4584003827    1.5145168349    1.5655984107
C        4.1221813186    1.6536459251    1.3392195122
C        5.0128609120    0.2138161471   -0.1109250720
C        4.1515105607   -0.9993405249   -2.0336739426
C        4.3819456810   -1.7848990801   -3.3196215147
C        6.5366581237   -1.2206213384   -1.3932681685
N        5.9957254193    0.6160897095    0.6565810819
N        3.8263582620    0.8267128100    0.2667566617
N        5.1822652391   -0.7089122115   -1.1610748494
O        2.9780470428   -0.6921054229   -1.7921698050
H        6.0175886548    2.0279202146    2.3394785787
H        3.4405252117    2.2853993877    1.8963811995
H        4.6899242752   -2.7985705907   -3.0518299179
H        5.2581253816   -1.4017103930   -3.8485384678
H        3.4814036927   -1.8244366453   -3.9385051801
H        7.0709543522   -1.3818726597   -0.4509615483
H        7.1219732843   -0.4131571860   -1.8454517414
H        6.5906328052   -2.0826490301   -2.0623771205
H        2.9414712344    0.6392886880   -0.2051997214
19   

C        5.4752881346    1.2645265180    1.7897948354
C        4.1454591407    1.4152061534    1.5378977957
C        5.0971971470    0.1444168325   -0.0302803070
C        4.2625541102   -0.9875234416   -2.0191965860
C        4.4823759479   -1.8646362284   -3.2477470354
C        6.6528798526   -1.1580459027   -1.4341633459
N        6.0497479901    0.4731632426    0.8073399857
N        3.8927697742    0.7026410238    0.3762305212
N        5.2977519809   -0.6613313039   -1.1682437690
O        3.1025830129   -0.5960474729   -1.8377541648
H        6.0050899247    1.6972473474    2.6307645118
H        3.4402170412    1.9810918604    2.1350197999
H        5.0188997618   -2.7741301285   -2.9676640711
H        5.1995563196   -1.3721738101   -3.9087569113
H        3.5461555357   -2.0731778007   -3.7727192660
H        7.4204646549   -0.7790873477   -0.7523820849
H        6.9268389015   -0.9854253816   -2.4789839299
H        6.6416064131   -2.2516964066   -1.3983226206
H        3.0257603221    0.5633025603   -0.1433758961
19   

C        5.3546314834    1.1771682399    1.8174967718
C        4.0209571521    1.3247644259    1.5816372861
C        4.9862431872    0.1951018818   -0.0800861869
C        4.1543070336   -0.9131748721   -2.0775427053
C        4.3421586030   -1.9011031582   -3.2232043712
C        6.5748993284   -0.9714586236   -1.5421489936
N        5.9389229996    0.4739709891    0.7752273509
N        3.7736869725    0.6981626426    0.3701333987
N        5.2061978404   -0.5191733798   -1.2733950754
O        3.0174366820   -0.4424698669   -1.9521385410
H        5.8803198669    1.5528199007    2.6879580759
H        3.3100910381    1.8349535429    2.2208350744
H        4.9351821756   -2.7579024503   -2.8938068208
H        4.9886158478   -1.4384472413   -3.9729580756
H        3.3885371703   -2.1803692767   -3.6794644038
H        7.3112782482   -0.2234270886   -1.2296801652
H        6.7459107182   -1.3330138907   -2.5588560932
H        6.7921734541   -1.7953852605   -0.8543810794
H        2.9084223909    0.5911992767   -0.1597432452
19   

C        5.3372550835    1.0753758341    1.8018247680
C        4.0036568160    1.2194149268    1.5612529882
C        5.0021074956    0.2158470596   -0.1582102332
C        4.1709624511   -0.8656190422   -2.1609692745
C        4.3414866110   -1.9599671638   -3.2076023285
C        6.6046560956   -0.8585393485   -1.6750445415
N        5.9431330588    0.4520495970    0.7216627541
N        3.7769039267    0.6700956721    0.3087208529
N        5.2372883385   -0.4140378111   -1.3967054875
O        3.0677007869   -0.3118116205   -2.1254978946
H        5.8481870936    1.4000533902    2.7010996708
H        3.2799833034    1.6797572905    2.2235457415
H        4.9639260207   -2.7714863871   -2.8224330632
H        4.9413950282   -1.5538333841   -4.0256063522
H        3.3788483420   -2.2876467942   -3.6094074285
H        7.3391547716   -0.1173458049   -1.3424202082
H        6.7672092160   -1.1883520317   -2.7043990734
H        6.8203445124   -1.7065290487   -1.0164270754
H        2.9196317782    0.5949723223   -0.2390274929
19   

C        5.3150475856    0.9818035937    1.8228273358
C        3.9836013560    1.1273100320    1.5688874296
C        5.0216269830    0.2491359760   -0.1919560992
C        4.1908817053   -0.8063693267   -2.1929669566
C        4.3484148350   -2.0071049687   -3.1166483531
C        6.6375938670   -0.7312660356   -1.7558610187
N        5.9466641821    0.4377654559    0.7148435433
N        3.7825187826    0.6582862794    0.2795994887
N        5.2720326134   -0.2919774950   -1.4709403050
O        3.1267624859   -0.1904223802   -2.2653429500
H        5.8068753928    1.2525039532    2.7501855118
H        3.2449826905    1.5390065901    2.2465998717
H        4.9824209481   -2.7716823337   -2.6607323323
H        4.9200160003   -1.6840561510   -3.9899863516
H        3.3795622349   -2.3723941172   -3.4678129101
H        7.3703342474    0.0046681003   -1.4080334759
H        6.7911797415   -1.0333168670   -2.7955361785
H        6.8517446004   -1.5994624860   -1.1234349256
H        2.9352804064    0.6184174009   -0.2866742295
19   

C        5.2695827474    0.8514391647    1.8372360202
C        3.9460585158    1.0213796003    1.5559663042
C        5.0321349936    0.2690784028   -0.2306364137
C        4.2096191696   -0.7350090991   -2.2420359946
C        4.3493126970   -2.0412576870   -3.0109567015
C        6.6650808142   -0.6170259043   -1.8262449811
N        5.9323096403    0.3871244233    0.7113293262
N        3.7795594961    0.6484763605    0.2305255573
N        5.3026255423   -0.1718376363   -1.5445324477
O        3.1997644851   -0.0703575430   -2.4500358144
H        5.7347091281    1.0519414458    2.7956959674
H        3.1904176544    1.3887243096    2.2404766827
H        4.9535261794   -2.7614237702   -2.4534739379
H        4.9384870116   -1.8387524848   -3.9084072683
H        3.3762887968   -2.4178056321   -3.3377894676
H        7.3986284264    0.1088625771   -1.4595925614
H        6.8161918995   -0.8907703545   -2.8744502787
H        6.8685380208   -1.5049672660   -1.2180607690
H        2.9477434347    0.6614791957   -0.3586162021
19   

C        5.2034792074    0.6961268793    1.7954444741
C        3.8914282031    0.9009971833    1.4839804329
C        5.0275299842    0.2598372261   -0.3124920045
C        4.2258887271   -0.7005713289   -2.3340042161
C        4.3334116974   -2.1165686655   -2.8794634570
C        6.6847552125   -0.5341994181   -1.9204474956
N        5.8983244993    0.3025365394    0.6621404228
N        3.7630159883    0.6219099032    0.1312115745
N        5.3228605458   -0.0853243407   -1.6489074038
O        3.2847938943   -0.0186872719   -2.7070836215
H        5.6387362812    0.8251234778    2.7798879876
H        3.1186946754    1.2317815659    2.1681834339
H        4.8244050016   -2.7700199237   -2.1537253552
H        5.0283076522   -2.1027915730   -3.7220801064
H        3.3687796355   -2.4813598638   -3.2424403842
H        7.4166792166    0.1801964873   -1.5289230913
H        6.8414493977   -0.7746703694   -2.9762364087
H        6.8744097076   -1.4442638441   -1.3411518598
H        2.9485313476    0.6914587435   -0.4767332444
19   

C        5.1706288816    0.5529242929    1.7597198304
C        3.8687232713    0.7939825614    1.4319227407
C        5.0420929564    0.2670736475   -0.3766954571
C        4.2682730954   -0.6372355837   -2.4185950805
C        4.3001342387   -2.1340076791   -2.6821794710
C        6.7241756594   -0.4222365352   -1.9981797985
N        5.8890653985    0.2320235946    0.6185026119
N        3.7695314728    0.6118719407    0.0601206905
N        5.3609683067    0.0182893626   -1.7258755264
O        3.4186085757    0.0309625802   -2.9735878693
H        5.5826771927    0.6080673290    2.7609279768
H        3.0836982550    1.0864120029    2.1197389750
H        4.6723077656   -2.6666649613   -1.8030509602
H        5.0679965226   -2.3273528647   -3.4346084830
H        3.3435105798   -2.4964762623   -3.0678326901
H        7.4501655612    0.2925945657   -1.5967646559
H        6.8799469665   -0.6403280910   -3.0592439686
H        6.9184621282   -1.3419915193   -1.4358736151
H        2.9676715965    0.7383216524   -0.5539761254
19   

C        4.9372424715    2.1303561004   -0.1062188898
C        4.7529511417    1.4230889134    1.0426757547
C        5.1177616214    0.0444428457   -0.6672679184
C        5.7124102520   -0.9309080220   -2.7453680323
C        4.7849382081   -0.2760240237   -3.7589119490
C        5.8038933033   -2.3112598083   -0.6872026334
N        5.1447230490    1.2561636171   -1.1588672774
N        4.8698493583    0.0831812180    0.7014151083
N        5.2667211792   -1.1554139043   -1.3916762686
O        6.8553095542   -1.1594481910   -3.0880408056
H        4.9192109587    3.2113452235   -0.1856796317
H        4.5490906737    1.8461521294    2.0195081476
H        4.5426414336   -1.0271568461   -4.5137621362
H        5.3381519550    0.4616009769   -4.3452955748
H        3.8637157978    0.1006149048   -3.3077329436
H        5.2358468285   -2.5354694312    0.2200966066
H        6.8075277590   -2.0544774381   -0.3300619662
H        5.9173060099   -3.1737686829   -1.3521077216
H        4.7725510008   -0.7280833342    1.3003719031
19   

C        4.8842856915    2.1400432615   -0.0516996458
C        4.7209474720    1.4589158306    1.1153121136
C        5.0646169944    0.0412093625   -0.5683748920
C        5.4870645023   -1.0393651131   -2.6408472350
C        4.5373512866   -0.2743715317   -3.5541807660
C        5.8080090641   -2.3129720580   -0.5409932835
N        5.0794350097    1.2420969825   -1.0865302092
N        4.8413655344    0.1123705807    0.8029666352
N        5.2177708303   -1.1844291132   -1.2487409941
O        6.5081482645   -1.4759734609   -3.1421967057
H        4.8611555030    3.2188449589   -0.1553600565
H        4.5281750790    1.9036313860    2.0847325095
H        4.4243980896   -0.8116877857   -4.4986330601
H        5.0525807430    0.6315047844   -3.8837028274
H        3.5931181172   -0.0200560132   -3.0662524287
H        5.3548860626   -2.4693025306    0.4418313813
H        6.8528009406   -2.0616242608   -0.3269601799
H        5.8344024413   -3.2139521790   -1.1627031387
H        4.7570127410   -0.6854970483    1.4215529615
19   

C        4.8504304801    2.1885595656   -0.0862853237
C        4.6921394941    1.5179412494    1.0869550318
C        5.1004929354    0.0890558059   -0.5739627735
C        5.4538992916   -1.0894995590   -2.6320257115
C        4.5420549048   -0.2483124031   -3.5188766504
C        5.8967068563   -2.2594314303   -0.5023764512
N        5.0873876863    1.2834596499   -1.1060766978
N        4.8598353748    0.1722934710    0.7937533629
N        5.3086192285   -1.1404011529   -1.2294830948
O        6.3332242986   -1.7188285557   -3.2004674808
H        4.7962108980    3.2647533301   -0.2041558982
H        4.4714566833    1.9687762654    2.0475381879
H        4.4060764234   -0.7268497817   -4.4916401925
H        5.0887484054    0.6636757015   -3.7721069576
H        3.6175231569    0.0424677754   -3.0139535696
H        5.5323894666   -2.3390128738    0.5253352244
H        6.9689866917   -2.0565134790   -0.4053096553
H        5.8376553614   -3.1926041818   -1.0722727073
H        4.7923245026   -0.6197298938    1.4218025151
19   

C        4.8596367633    2.0590348989   -0.1107831059
C        4.7269173903    1.4055269191    1.0745879696
C        5.1283740703   -0.0457872463   -0.5702605719
C        5.3302715215   -1.3329061938   -2.6057715207
C        4.4724118699   -0.4167085488   -3.4737291910
C        5.9153235434   -2.4055807503   -0.4669892052
N        5.0930203291    1.1403768875   -1.1191244189
N        4.9092057488    0.0580352355    0.7998014326
N        5.3461698136   -1.2820781450   -1.2054229724
O        6.0058386497   -2.1538158968   -3.2121138834
H        4.7903971136    3.1324748029   -0.2444747782
H        4.5128699755    1.8687706457    2.0307080563
H        4.2724026384   -0.8694609751   -4.4478985213
H        5.0690424316    0.4718388833   -3.6953599464
H        3.5880325900   -0.0559947664   -2.9428513904
H        5.7254763553   -2.3708469948    0.6089059293
H        7.0027568747   -2.3534821324   -0.5898951684
H        5.6674698013   -3.3628189088   -0.9373715366
H        4.8604280939   -0.7246104597    1.4411000089
19   

C        4.8015651415    2.0698705040   -0.0964581932
C        4.7286771341    1.4068984152    1.0881976707
C        5.1710860945   -0.0173801888   -0.5715104615
C        5.2698651203   -1.3650628407   -2.5941668755
C        4.4541174771   -0.4031076255   -3.4541887852
C        6.0243355097   -2.3556195779   -0.4790835573
N        5.0611098271    1.1674781557   -1.1129012861
N        4.9776347361    0.0722779451    0.8036785777
N        5.4409230143   -1.2360574258   -1.2158979676
O        5.7508643486   -2.3138429164   -3.2026253482
H        4.6732795794    3.1385875849   -0.2237949763
H        4.5089819945    1.8552950964    2.0500242659
H        4.2195270988   -0.8339981663   -4.4306653558
H        5.0660027962    0.4851420581   -3.6302129420
H        3.5865807030   -0.0204009225   -2.9112803722
H        5.9665679768   -2.2615996478    0.6083019354
H        7.0847201071   -2.4033666029   -0.7498350773
H        5.6635263644   -3.3157203024   -0.8625806498
H        4.9827634697   -0.7137172241    1.4425387729
19   

C        4.7749748915    2.0764568563   -0.0607909803
C        4.8551155904    1.4146024251    1.1233492465
C        5.3129645443    0.0337188568   -0.5690199481
C        5.3049960859   -1.3859416833   -2.5538607175
C        4.4886617857   -0.4226857285   -3.4123672489
C        6.3139806547   -2.2267923756   -0.4736568505
N        5.0461364440    1.1995897514   -1.0960389553
N        5.2158096054    0.1105461896    0.8172932029
N        5.6548370591   -1.1583545674   -1.2258278946
O        5.6045619103   -2.4281778991   -3.1261852755
H        4.5336174615    3.1269461049   -0.1739970137
H        4.6607723584    1.8440100759    2.0990278163
H        4.2213309335   -0.8596915057   -4.3777401791
H        5.0763430204    0.4853127126   -3.5682795363
H        3.6234385134   -0.0549896315   -2.8557818519
H        5.6700736457   -2.5359352882    0.3548229445
H        7.1687074287   -1.8140989692    0.0722493470
H        6.5943474179   -3.0971363457   -1.0758871587
H        5.3460502848   -0.6678360743    1.4517503675
