25   

C       -0.2394542355   -5.5681374185   -3.7790585519
C        0.0371698356   -4.7721853976   -2.5916559594
C       -0.4762089088   -4.7867473669   -4.8794522845
C       -0.0320743360   -1.0294296875   -1.8552106770
C        0.2404608229   -2.3720519471   -1.8595235012
C       -0.0001617853   -3.4173698093   -2.8393193816
C        0.4367672405   -0.5476013287   -0.5688651684
C       -2.2025690950   -0.3142745787   -2.9222603044
C        0.3307969256    0.8454420884   -0.0217312817
C       -0.6832567263   -0.1624552324   -2.9153015946
N        0.9374679220   -1.5381735819    0.1208474571
N        0.8188893528   -2.6537362351   -0.6506856914
O       -2.7561084848   -0.5384163454   -3.9863032044
O       -2.8670043210   -0.1639152968   -1.7486628644
S       -0.3707744533   -3.0698988982   -4.5109459257
H       -0.2590964576   -6.6526580031   -3.7915475168
H        0.2371220655   -5.2145181266   -1.6235391617
H       -0.7057016145   -5.1694994206   -5.8672812960
H       -0.5539616136    1.3487713701   -0.4195613336
H        0.2574786565    0.8139217962    1.0691785762
H        1.2215026580    1.4166056195   -0.2961437424
H       -0.2779033122   -0.3949025597   -3.9020403615
H       -0.4505384949    0.8884055535   -2.7297405574
H        1.1440010257   -3.5779749073   -0.3797189857
H       -3.8067503431   -0.3117042910   -1.9414171511
25   

C       -0.2555247852   -5.4380138536   -4.0003945240
C       -0.1126029473   -4.6790522560   -2.7661238611
C       -0.1104074584   -4.6471887836   -5.1106667155
C        0.0582133501   -1.0041052733   -1.9074920834
C        0.3398292724   -2.3406023283   -1.9612229066
C        0.1325320198   -3.3438956784   -2.9927386050
C        0.4917198519   -0.5759477945   -0.5902257123
C       -2.1106295499   -0.2647425965   -2.9049895410
C        0.3750194603    0.7945904584    0.0089255563
C       -0.5933417236   -0.1148992767   -2.9450579181
N        0.9684913808   -1.5968541729    0.0732782257
N        0.8747282051   -2.6797696321   -0.7478975860
O       -2.6548034347   -0.9382226770   -3.7645144156
O       -2.7859372668    0.4097598793   -1.9409658751
S        0.2027502305   -2.9659761450   -4.6950898536
H       -0.4583644085   -6.5029336184   -4.0377893165
H       -0.2070204670   -5.1233331592   -1.7824824317
H       -0.1834442292   -5.0033143338   -6.1317548254
H       -0.4737895497    1.3331052287   -0.4195750166
H        0.2349154929    0.7183531039    1.0910148983
H        1.2907061812    1.3590334269   -0.1853661184
H       -0.2231668585   -0.3445453816   -3.9457149683
H       -0.3418339580    0.9308587598   -2.7527647729
H        1.1987817458   -3.6150722299   -0.5141164014
H       -3.7244245978    0.1892809471   -2.0566514729
25   

C       -0.3044382559   -5.3574895355   -4.0030346844
C       -0.2513704182   -4.5822794862   -2.7714652687
C        0.1189661619   -4.6320533293   -5.0876485208
C        0.0848225931   -0.9704016727   -1.8991121456
C        0.3992661791   -2.2969924972   -1.9443949881
C        0.2026457551   -3.3020727775   -2.9789424208
C        0.5154406279   -0.5232345713   -0.5869988316
C       -2.1300355268   -0.2407961563   -2.7812418763
C        0.4159806526    0.8578827387   -0.0094882405
C       -0.6179390550   -0.1331399309   -2.9454595694
N        1.0377500911   -1.5254091320    0.0726071180
N        0.9749828727   -2.6141193461   -0.7450194134
O       -2.7477000849   -0.9814683050   -3.5286017353
O       -2.7200070237    0.5372984399   -1.8396094080
S        0.5926513949   -2.9929134980   -4.6525641157
H       -0.6440419328   -6.3862351544   -4.0573423006
H       -0.5503452815   -4.9692222713   -1.8041725471
H        0.1562444736   -5.0120370202   -6.1020630632
H       -0.4937706778    0.9355529736    0.5919526003
H        1.2767249670    1.0551264286    0.6357562069
H        0.3823576355    1.6120407803   -0.7984774780
H       -0.3356117496   -0.4486218616   -3.9515733479
H       -0.3285500717    0.9155520422   -2.8494247029
H        1.3346421870   -3.5381378289   -0.5166785428
H       -3.6682130832    0.3297549836   -1.8664795421
25   

C       -0.3666271861   -5.3332134021   -4.0360282016
C       -0.3988748226   -4.5441299518   -2.8122417071
C        0.3017807836   -4.6905659018   -5.0482227610
C        0.0442351907   -1.0231702086   -1.8738628666
C        0.4144036417   -2.3321734013   -1.9144152642
C        0.2384271745   -3.3374744119   -2.9568747610
C        0.4981175826   -0.5410580051   -0.5831582256
C       -2.2094498927   -0.3009714660   -2.6522750642
C        0.3599005447    0.8444067873   -0.0254381533
C       -0.7104555701   -0.2429241013   -2.9260148701
N        1.0866597787   -1.5119776277    0.0688421082
N        1.0454399433   -2.6131347011   -0.7350036433
O       -2.8800776797   -1.1284535054   -3.2475360236
O       -2.7308510505    0.6079433929   -1.7910999000
S        0.9110374363   -3.1131745276   -4.5547314065
H       -0.8225744594   -6.3122907014   -4.1366462346
H       -0.8805360994   -4.8651267364   -1.8955818807
H        0.4398483800   -5.0960541101   -6.0438962643
H       -0.5009390547    0.8816669699    0.6474235668
H        1.2562079821    1.1081261372    0.5429861435
H        0.2146792876    1.5752146763   -0.8239242790
H       -0.5081860049   -0.6448826469   -3.9216248107
H       -0.3882328915    0.8010015666   -2.9264550940
H        1.4479185572   -3.5204063622   -0.5098521651
H       -3.6804693651    0.4141577458   -1.7298291849
25   

C       -1.1496602536   -5.0914346366   -4.3680675204
C       -1.3354992626   -4.2762715261   -3.1753014277
C        0.0960862232   -4.9239195137   -4.9210640208
C       -0.0759885811   -1.2525069364   -1.7352220722
C       -0.0727358126   -2.6112370407   -1.7546113880
C       -0.2230728286   -3.5303678158   -2.8823393920
C        0.1252609701   -0.8923095151   -0.3453425572
C       -1.7335301508    0.0929156314   -3.0152873763
C        0.2243159465    0.4883608196    0.2315479013
C       -0.2705112336   -0.3242645091   -2.9108818328
N        0.2315339938   -1.9773493909    0.3801405585
N        0.1138398266   -3.0380588155   -0.4703214631
O       -2.4886321760   -0.5885490987   -3.6895743968
O       -2.1137882141    1.2300002309   -2.3815460834
S        1.0835100374   -3.7768030735   -4.0191036225
H       -1.9108125905   -5.7485021922   -4.7748780849
H       -2.2496833789   -4.2455175736   -2.5929923792
H        0.4410089873   -5.4311328154   -5.8147148421
H       -0.7387967795    0.7730121367    0.6633216971
H        0.9787231255    0.5077481642    1.0230798577
H        0.4939561600    1.2146018542   -0.5384856520
H        0.0325387476   -0.8167485824   -3.8388569814
H        0.3509368066    0.5671117852   -2.7950444268
H        0.1706952229   -4.0181420524   -0.2013911248
H       -3.0662672045    1.3287450794   -2.5434408872
25   

C       -1.1351710617   -4.8979235997   -4.4607101150
C       -1.3161877486   -4.0350757662   -3.3013388644
C        0.1875238061   -5.0333845163   -4.8047376728
C       -0.0451086542   -1.2805773911   -1.7030234125
C        0.0409160556   -2.6362598419   -1.6980115104
C       -0.1225733426   -3.5723850782   -2.8116490179
C        0.1574018060   -0.8807025625   -0.3249483732
C       -1.8032919490   -0.0160060228   -2.9336712152
C        0.1901102141    0.5165398265    0.2182837146
C       -0.3256905929   -0.3923136222   -2.8916651934
N        0.3297992180   -1.9430874317    0.4207646831
N        0.2551344671   -3.0261930215   -0.4066000802
O       -2.6021107511   -0.8308229829   -3.3677398016
O       -2.1532265237    1.2217707866   -2.5046175778
S        1.2566299066   -4.1259307267   -3.7376274757
H       -1.9535407730   -5.3686158975   -4.9948262622
H       -2.2801947776   -3.7605041709   -2.8860846173
H        0.5435113257   -5.6254901397   -5.6399091019
H       -0.7818145359    0.7612521786    0.6547059925
H        0.9508417654    0.5940696283    1.0001379334
H        0.4135871789    1.2365234537   -0.5722936051
H       -0.0584162940   -0.9047453305   -3.8200160187
H        0.2789901958    0.5162719975   -2.8328914672
H        0.3472459425   -3.9974963824   -0.1162345349
H       -3.1193888208    1.2781770237   -2.5862829109
25   

C       -1.1343822437   -4.8317050392   -4.5417045599
C       -1.2992312824   -3.8926095369   -3.4408313223
C        0.1730962263   -5.2194091187   -4.7014495718
C       -0.0618985344   -1.3166614907   -1.7337476598
C        0.0752670196   -2.6694887443   -1.7163071596
C       -0.1133948575   -3.6243547523   -2.8065492069
C        0.1766909397   -0.8916983411   -0.3687325114
C       -1.8781302024   -0.0460309128   -2.8885904612
C        0.1822195201    0.5130819013    0.1558054519
C       -0.4058072285   -0.4448049784   -2.9192281588
N        0.4138760684   -1.9368248814    0.3830359750
N        0.3474586871   -3.0328222863   -0.4275135627
O       -2.7070213981   -0.8403961500   -3.3033013407
O       -2.1901814817    1.1909315703   -2.4295717192
S        1.2461820053   -4.4653622591   -3.5249730045
H       -1.9515073014   -5.1751412401   -5.1669871421
H       -2.2441058112   -3.4370704150   -3.1634266858
H        0.5167298189   -5.9079007026   -5.4648356612
H       -0.7840296964    0.7344172610    0.6166284175
H        0.9620644897    0.6242321104    0.9144155453
H        0.3611536429    1.2285909785   -0.6500817851
H       -0.1958032883   -0.9743973249   -3.8526795913
H        0.2123392472    0.4566405613   -2.9104867625
H        0.4774552952   -3.9966712980   -0.1269055791
H       -3.1577919298    1.2644003854   -2.4723586987
25   

C       -1.1225772457   -4.7940504224   -4.6099132931
C       -1.2790701751   -3.7806875350   -3.5758502228
C        0.1244652390   -5.3670654896   -4.5902208555
C       -0.1239103258   -1.3233176969   -1.7403978396
C        0.0481214302   -2.6742984023   -1.7347131845
C       -0.1481538487   -3.6357111447   -2.8124791643
C        0.1638477114   -0.8973718777   -0.3844280426
C       -1.9811383577   -0.0210039838   -2.8096161775
C        0.1629501187    0.5048555378    0.1473558531
C       -0.5172072950   -0.4417266205   -2.9046853099
N        0.4624542835   -1.9377783035    0.3511907830
N        0.3895953636   -3.0320217950   -0.4603460692
O       -2.8322390040   -0.7623913491   -3.2735684813
O       -2.2607596382    1.1830921911   -2.2532619041
S        1.1479569273   -4.7021112598   -3.3202999035
H       -1.9024466880   -5.0582142085   -5.3161058606
H       -2.1834805130   -3.2013821635   -3.4280404568
H        0.4523400548   -6.1396671667   -5.2761464927
H       -0.7907783048    0.7071562802    0.6417706984
H        0.9662665731    0.6263110869    0.8794518847
H        0.3020752435    1.2273830286   -0.6601167285
H       -0.3522036348   -0.9661829911   -3.8498955478
H        0.1108287655    0.4528061712   -2.9192723218
H        0.5592042654   -3.9926925714   -0.1694459312
H       -3.2273657060    1.2775056089   -2.2734478703
25   

C       -1.0723115841   -4.7318824754   -4.7064211984
C       -1.2054071434   -3.6606339212   -3.7292476171
C        0.0728013819   -5.4638435131   -4.5203988234
C       -0.1526571082   -1.3220138016   -1.7397712427
C        0.0384130219   -2.6726883389   -1.7614108733
C       -0.1577160718   -3.6249228291   -2.8423469620
C        0.1879410785   -0.9110740456   -0.3904790287
C       -2.0466320466   -0.0059063031   -2.7392046396
C        0.1942563672    0.4821608263    0.1651636409
C       -0.5814443869   -0.4134355844   -2.8718836747
N        0.5384237618   -1.9557012830    0.3146764504
N        0.4490549507   -3.0383987112   -0.5094492126
O       -2.8916065312   -0.6748865344   -3.3113504733
O       -2.3324617804    1.1175954235   -2.0369456217
S        1.0243376134   -4.8811960863   -3.1584293583
H       -1.7967474502   -4.9242134488   -5.4906009746
H       -2.0432581357   -2.9747999852   -3.7035834172
H        0.3670712476   -6.3052046886   -5.1372110175
H       -0.7458885066    0.6699140501    0.6903335226
H        1.0179801944    0.5968570077    0.8753728001
H        0.3054613627    1.2196378308   -0.6329454409
H       -0.4247459793   -0.9063490073   -3.8350850508
H        0.0361813743    0.4883268187   -2.8733846012
H        0.6531441778   -3.9989552916   -0.2412189821
H       -3.2986418517    1.2162443796   -2.0575086883
25   

C       -0.9745572575   -4.6716587232   -4.7682107808
C       -1.0817127524   -3.5435138619   -3.8542202639
C        0.0271188377   -5.5357287302   -4.4092336593
C       -0.1920525809   -1.2888785183   -1.7253308295
C        0.0185843682   -2.6392502899   -1.7586590364
C       -0.1543661962   -3.5911959605   -2.8407439155
C        0.1744100557   -0.8782507276   -0.3817116097
C       -2.1211246104   -0.0185835688   -2.7260667545
C        0.1684067408    0.5098870054    0.1877940155
C       -0.6382025106   -0.3639564663   -2.8387956084
N        0.5672364163   -1.9178105007    0.3069948636
N        0.4794530155   -2.9966102015   -0.5210043851
O       -2.9136167915   -0.6147093388   -3.4369928740
O       -2.4782195304    0.9815360309   -1.8838918019
S        0.8702058162   -5.0100136487   -2.9568834712
H       -1.6170726522   -4.8098298423   -5.6312597779
H       -1.8279158984   -2.7673801501   -3.9614014757
H        0.2777768396   -6.4403442490   -4.9512672345
H       -0.7646049673    0.6763946889    0.7324746892
H        1.0034017471    0.6314987494    0.8835656738
H        0.2520821337    1.2582780420   -0.6032057025
H       -0.4346925289   -0.8138722207   -3.8138171843
H       -0.0615633047    0.5634141978   -2.7991607761
H        0.7176500511   -3.9524426618   -0.2643199741
H       -3.4449863959    1.0570419984   -1.9405660895
25   

C       -0.8422329795   -4.6508872697   -4.8157282034
C       -0.8958443747   -3.4759254431   -3.9580940984
C       -0.0297227904   -5.6278038283   -4.3052028154
C       -0.1907412225   -1.2908839087   -1.7053932530
C        0.0450753445   -2.6406706168   -1.7512960624
C       -0.1159560001   -3.5971241929   -2.8306256015
C        0.2407862586   -0.8700548538   -0.3835184523
C       -2.1895978789   -0.1630335481   -2.7660442977
C        0.2087421024    0.5107773601    0.2034458616
C       -0.6734353842   -0.3495643411   -2.7912092280
N        0.6793049365   -1.9004867275    0.2885086675
N        0.5616383153   -2.9819931210   -0.5301132305
O       -2.8462953099   -0.6203109258   -3.6872130762
O       -2.7267388042    0.5572742586   -1.7513394906
S        0.6943266646   -5.1524908094   -2.7749291295
H       -1.3890689986   -4.7402916100   -5.7483533036
H       -1.5110920267   -2.6194267042   -4.1929938164
H        0.1502970154   -6.5849595547   -4.7810331968
H       -0.4998012672    1.1488729538   -0.3285639011
H       -0.0811874407    0.4597886438    1.2566490578
H        1.2046148455    0.9571844999    0.1405107624
H       -0.3538879862   -0.7068135776   -3.7732450018
H       -0.2078544299    0.6300534411   -2.6567327714
H        0.8274511653   -3.9325222450   -0.2810393479
H       -3.6868596522    0.5679857613   -1.8968462601
25   

C       -0.7379674348   -4.6495717008   -4.9994702572
C       -0.6672547930   -3.4507610287   -4.1768335369
C       -0.2095911147   -5.7429932046   -4.3684322348
C       -0.0999802072   -1.3715078418   -1.7886447424
C        0.1230669007   -2.7236446444   -1.8674474981
C       -0.0799948880   -3.6698881101   -2.9498637425
C        0.3598184040   -0.9790599446   -0.4680919894
C       -2.1454084783   -0.3540993657   -2.8607593550
C        0.3126396833    0.3860267396    0.1536625208
C       -0.6198772953   -0.3949403330   -2.8247204807
N        0.8179736287   -2.0215477319    0.1697587297
N        0.6795215568   -3.0844241560   -0.6690756187
O       -2.7125330300   -0.7371740378   -3.8711338339
O       -2.7934238784    0.1606749394   -1.7870456548
S        0.3894535653   -5.3516370482   -2.7632071763
H       -1.1673778587   -4.6708505551   -5.9954370437
H       -1.0634961754   -2.5061912910   -4.5186815730
H       -0.1644870312   -6.7366563055   -4.7991950241
H       -0.4966457228    0.9813935867   -0.2757784806
H        0.1530408143    0.2990108713    1.2321643578
H        1.2629847950    0.8988048197   -0.0167847826
H       -0.2192125898   -0.6357696355   -3.8116259025
H       -0.2608184354    0.6111191295   -2.5951588928
H        0.9538892992   -4.0390887322   -0.4465644802
H       -3.7431054327    0.0986851011   -1.9798295388
25   

C       -0.7955675281   -4.5213381246   -4.9197204820
C       -0.5091708904   -3.3103863889   -4.1644477751
C       -0.6848605912   -5.6495123407   -4.1515997190
C       -0.0479699666   -1.2428991849   -1.7475815593
C        0.1362986170   -2.5998858606   -1.8109688338
C       -0.1963372879   -3.5602435353   -2.8467708235
C        0.4673727495   -0.8443748631   -0.4501371956
C       -2.1500956099   -0.5678183030   -2.9891131235
C        0.4613549063    0.5284435582    0.1554460411
C       -0.6628524448   -0.3019476345   -2.7653338545
N        0.9190539606   -1.8905522076    0.1879873203
N        0.7181172877   -2.9630919081   -0.6264854747
O       -2.5488249747   -0.6499938176   -4.1398626133
O       -2.9564077241   -0.6853569295   -1.9052218958
S       -0.2327103272   -5.2787351269   -2.4934267885
H       -1.0671809075   -4.5250446653   -5.9699775847
H       -0.5408930343   -2.3301566240   -4.6195563508
H       -0.8561648569   -6.6564612239   -4.5144821389
H       -0.4351693741    1.0765660505   -0.1447740161
H        0.4804445255    0.4564777799    1.2468576608
H        1.3458111717    1.0795326755   -0.1748856978
H       -0.1210020960   -0.3749202613   -3.7109919356
H       -0.5571253834    0.7323102312   -2.4316770271
H        0.9632127922   -3.9235456190   -0.3951236904
H       -3.8465770561   -0.8808092758   -2.2392045540
25   

C       -0.7846914551   -4.4262071266   -4.9211178580
C       -0.3473616789   -3.2566310387   -4.1727969310
C       -0.9794374608   -5.5156816581   -4.1120385827
C       -0.0201801742   -1.2073627054   -1.7206964793
C        0.1613939949   -2.5610809937   -1.7944851607
C       -0.2312951121   -3.5034631077   -2.8252391934
C        0.5416692299   -0.8180559891   -0.4401670531
C       -2.1427961092   -0.7532462029   -3.0496925771
C        0.6210859987    0.5615536987    0.1438158597
C       -0.7268447925   -0.2931125577   -2.7039907931
N        1.0270486900   -1.8679098751    0.1693384115
N        0.8019533340   -2.9364345373   -0.6457055590
O       -2.4839676270   -0.7058199390   -4.2208124277
O       -2.9498209525   -1.1888536493   -2.0505851544
S       -0.6409137237   -5.1594570859   -2.4221238179
H       -0.9409420031   -4.4300969090   -5.9946031381
H       -0.1373757339   -2.3013922521   -4.6382007276
H       -1.3067919028   -6.4873935851   -4.4635749012
H       -0.2791773460    0.7607538988    0.7315402749
H        1.4910052401    0.6393280645    0.8023506646
H        0.7056067990    1.3124684802   -0.6451446631
H       -0.1329033974   -0.2155723611   -3.6181559300
H       -0.8062754745    0.7126350607   -2.2864200519
H        1.0612647191   -3.8979178433   -0.4350920234
H       -3.7786659067   -1.4745812689   -2.4666963054
25   

C       -0.7131898177   -4.4174355691   -4.9412008206
C       -0.1882717260   -3.2798390257   -4.1995794570
C       -1.1321747816   -5.4272835020   -4.1123042031
C       -0.0519759601   -1.1804794978   -1.7495017608
C        0.1718113997   -2.5252711840   -1.8187964623
C       -0.2252845715   -3.4783871825   -2.8413467857
C        0.5495129974   -0.7630833432   -0.4966528623
C       -2.1869767777   -0.8869870870   -3.1139539802
C        0.6012323317    0.6229474027    0.0744253744
C       -0.8247766162   -0.3123967726   -2.7248563831
N        1.1047826364   -1.7904248420    0.0935591968
N        0.8860729557   -2.8729405894   -0.7059712785
O       -2.5059847623   -0.8394161329   -4.2913361745
O       -2.9734632328   -1.4185777340   -2.1453547428
S       -0.9040541626   -5.0346939348   -2.4109173784
H       -0.7717273842   -4.4555339508   -6.0237318548
H        0.1794621186   -2.3738349221   -4.6673739451
H       -1.5595163881   -6.3621106846   -4.4564213190
H       -0.2561632271    0.7770405310    0.7352069493
H        1.5173159344    0.7523814053    0.6578891103
H        0.5777406120    1.3714272555   -0.7209937905
H       -0.2245041180   -0.1662396726   -3.6267096409
H       -0.9998557233    0.6722967210   -2.2862526657
H        1.1946084269   -3.8223029720   -0.5069568261
H       -3.7605389955   -1.7710791738   -2.5902632192
25   

C       -0.6553782097   -4.4244846611   -4.9194952070
C       -0.0500986316   -3.3393005305   -4.1603902824
C       -1.2934524689   -5.3304382318   -4.1094876650
C       -0.0851654649   -1.1885578856   -1.7047054365
C        0.1652545316   -2.5261101571   -1.7853742145
C       -0.2430742693   -3.4791156316   -2.8092347801
C        0.5648899899   -0.7592373708   -0.4808648862
C       -2.2339842479   -0.9823967476   -3.0677945429
C        0.6093486480    0.6273008431    0.0891739771
C       -0.9081784795   -0.3418116694   -2.6571581188
N        1.1787203344   -1.7729836763    0.0753113821
N        0.9510404605   -2.8592106317   -0.7174584571
O       -2.5338991826   -0.9569701529   -4.2508776123
O       -3.0145797005   -1.5395438644   -2.1089839887
S       -1.1802111809   -4.9024618420   -2.4046294485
H       -0.6142867587   -4.4996446883   -6.0008592927
H        0.4752409579   -2.5034980531   -4.6086140416
H       -1.8143754389   -6.2101547561   -4.4695381249
H       -0.2069492391    0.7534149691    0.8055228365
H        1.5573429673    0.7858806515    0.6112300775
H        0.5089746505    1.3747534571   -0.7012446539
H       -0.3163997933   -0.1401645112   -3.5541428080
H       -1.1386297705    0.6192348168   -2.1921332850
H        1.2981775248   -3.7998133041   -0.5416483501
H       -3.7746139168   -1.9324517060   -2.5668445356
25   

C        0.3447733528   -4.9054893968   -4.5164016645
C        0.7839158803   -3.9109128000   -3.5472811758
C       -0.9431416616   -5.3199935437   -4.2835836228
C       -0.0651985014   -1.2857775697   -1.6174283887
C       -0.0743647676   -2.6433029655   -1.5445381946
C       -0.1865183346   -3.6273783162   -2.6204938810
C        0.0865233474   -0.8327896171   -0.2483334872
C       -1.6643990104   -0.0317086500   -3.0600368431
C        0.1711981721    0.5830710726    0.2386330333
C       -0.2078729027   -0.4374978011   -2.8597992929
N        0.1604221591   -1.8664578351    0.5519808056
N        0.0607877156   -2.9818403793   -0.2278357444
O       -2.3550353297   -0.6922173056   -3.8185126416
O       -2.1049505996    1.0804303585   -2.4207788475
S       -1.6624047406   -4.5246226429   -2.8858655048
H        0.9612375795   -5.2699502958   -5.3310587034
H        1.7591734890   -3.4374117927   -3.5569891343
H       -1.4699912851   -6.0492909729   -4.8880690788
H       -0.8070648646    0.8989607947    0.6106838442
H        0.8927421036    0.6529625776    1.0574351500
H        0.4754904365    1.2555024500   -0.5664622530
H        0.1381775056   -0.9887007864   -3.7383630896
H        0.4052902934    0.4628719973   -2.7745357081
H        0.0760538438   -3.9415366726    0.1113842995
H       -3.0442435320    1.1738074708   -2.6494812663
25   

C        0.4226285945   -5.0569382332   -4.4138530745
C        0.8776301031   -4.0990863407   -3.4153908947
C       -0.9374604141   -5.2395937719   -4.3719159658
C       -0.0961125825   -1.2652180196   -1.6427976210
C       -0.0346463348   -2.6213253610   -1.5858038933
C       -0.1577080707   -3.6046496031   -2.6641894282
C        0.0887819950   -0.8197982037   -0.2754141456
C       -1.7898163680   -0.0315026760   -2.9977241004
C        0.1312570740    0.5939664289    0.2226950070
C       -0.3189922411   -0.4150540175   -2.8717292188
N        0.2410035131   -1.8572824109    0.5092853152
N        0.1620425807   -2.9684091474   -0.2791674586
O       -2.5100272064   -0.7078273714   -3.7135563447
O       -2.2119385637    1.0801791859   -2.3454335839
S       -1.7084757157   -4.2621263553   -3.1254285048
H        1.0810877401   -5.5627550953   -5.1118192849
H        1.9115671772   -3.8017261883   -3.2808206583
H       -1.4869137238   -5.9035607405   -5.0292740000
H       -0.8451726391    0.8649678398    0.6329179647
H        0.8787770809    0.6875625785    1.0154104207
H        0.3772974181    1.2851225221   -0.5865421565
H       -0.0083533332   -0.9583513856   -3.7686341325
H        0.2837742639    0.4945712484   -2.8136900495
H        0.2253348707   -3.9300751063    0.0486606268
H       -3.1625635922    1.1600176834   -2.5277069636
25   

C        0.4695757736   -5.1489301156   -4.3321026597
C        0.9379915281   -4.2419763084   -3.2931323890
C       -0.8892583934   -5.0711617174   -4.5110066809
C       -0.0613181679   -1.1993717501   -1.6508968016
C        0.0518342948   -2.5536687109   -1.6459483201
C       -0.0855882678   -3.5146572122   -2.7404103529
C        0.1522351567   -0.7975989479   -0.2740813852
C       -1.8047704708    0.1400993434   -2.8445487117
C        0.1730416570    0.5989345906    0.2715802868
C       -0.3463746598   -0.3079349564   -2.8373821933
N        0.3598179894   -1.8566619063    0.4680338728
N        0.2913629935   -2.9412066502   -0.3573677540
O       -2.6261661890   -0.5546458059   -3.4197510277
O       -2.1072622402    1.3216572409   -2.2518264584
S       -1.6426438955   -3.8998472989   -3.4323913240
H        1.1187285301   -5.8082000299   -4.8983205839
H        1.9743067906   -4.1482943178   -2.9884062529
H       -1.4471141026   -5.6564949615   -5.2328717464
H       -0.7947013114    0.8275162546    0.7257713645
H        0.9464738478    0.6873342111    1.0396821459
H        0.3704172075    1.3236195695   -0.5217111978
H       -0.1280556951   -0.8376227679   -3.7689297229
H        0.2989717488    0.5735620014   -2.8038287224
H        0.3811765394   -3.9118507911   -0.0642899973
H       -3.0669051476    1.4372699256   -2.3478138538
25   

C        0.4826296951   -5.3084153248   -4.2436084805
C        0.9177361135   -4.4135037845   -3.1801206983
C       -0.8154494012   -5.0701244327   -4.6198518755
C       -0.1436387260   -1.2049341714   -1.7325191827
C        0.0481074229   -2.5516228068   -1.7314263656
C       -0.0657976036   -3.5310813951   -2.8070151948
C        0.1038520718   -0.7878724139   -0.3656103115
C       -1.9782996213    0.0967535079   -2.8384633809
C        0.0757556091    0.6098620021    0.1768722744
C       -0.5127603504   -0.3236120605   -2.9041490273
N        0.4021983583   -1.8306970590    0.3681815263
N        0.3619426056   -2.9196159270   -0.4526763577
O       -2.8173332459   -0.6276823556   -3.3475468613
O       -2.2703646928    1.2877079568   -2.2597812506
S       -1.5489598600   -3.7569852149   -3.7037401660
H        1.1108206509   -6.0741203779   -4.6860461254
H        1.9055950468   -4.4382885843   -2.7341151086
H       -1.3407399306   -5.6191273882   -5.3928902993
H       -0.8913094375    0.7983985354    0.6503574459
H        0.8606690972    0.7341068761    0.9282251390
H        0.2258102988    1.3397382915   -0.6220457274
H       -0.3303466544   -0.8491822353   -3.8455028933
H        0.1153322431    0.5709758263   -2.9057367437
H        0.5116669514   -3.8827989246   -0.1599998723
H       -3.2358914289    1.3835321947   -2.3059642976
25   

C        0.4289959556   -5.3835418364   -4.1580137964
C        0.8319369235   -4.5309443934   -3.0482790844
C       -0.7595065426   -4.9813986908   -4.7124255830
C       -0.1695538931   -1.1865964564   -1.7345985038
C        0.0471562907   -2.5318163785   -1.7475490235
C       -0.0642518194   -3.5151654338   -2.8149111295
C        0.1262527858   -0.7696866853   -0.3766756759
C       -2.0532922567    0.1034438472   -2.7759923016
C        0.0955238108    0.6245174925    0.1755290588
C       -0.5823436672   -0.2899309074   -2.8809021790
N        0.4781596737   -1.8076754426    0.3389812402
N        0.4271625913   -2.8934135373   -0.4843544963
O       -2.8904913079   -0.6200538185   -3.2892561045
O       -2.3530494798    1.2734376023   -2.1598054944
S       -1.4246197594   -3.5612485323   -3.9121438484
H        1.0016391165   -6.2365736526   -4.5060282415
H        1.7416942400   -4.6783018464   -2.4777235582
H       -1.2438936097   -5.4721109215   -5.5487785166
H       -0.8577536862    0.7956089158    0.6823541029
H        0.9034261841    0.7563373739    0.9008087711
H        0.2079133373    1.3620689643   -0.6224158466
H       -0.4065283610   -0.7882677839   -3.8376707060
H        0.0281434615    0.6166858757   -2.8774917671
H        0.6075952090   -3.8533741375   -0.1993935464
H       -3.3206606494    1.3547102372   -2.1856783673
25   

C        0.3499866404   -5.5242430126   -4.0281322652
C        0.7156299660   -4.7020681674   -2.8833153561
C       -0.6915301715   -4.9853380536   -4.7381248571
C       -0.1709561320   -1.2278034549   -1.7090057474
C        0.0586208840   -2.5741769656   -1.7235764376
C       -0.0622613307   -3.5717850708   -2.7735952807
C        0.1842475991   -0.7975560215   -0.3684258073
C       -2.1185000449   -0.0141093595   -2.7294783219
C        0.1622642563    0.5973243564    0.1839635816
C       -0.6276454973   -0.3233464465   -2.8341771533
N        0.5869660032   -1.8244130916    0.3348427524
N        0.5128497887   -2.9150700743   -0.4784448804
O       -2.8989672363   -0.6568448969   -3.4118702989
O       -2.4966878659    1.0093054782   -1.9242455334
S       -1.2585428709   -3.4707282767   -4.0443674109
H        0.8447475578   -6.4533074885   -4.2903570434
H        1.5234341063   -4.9541374829   -2.2065938164
H       -1.1244969204   -5.4299255321   -5.6268316551
H       -0.7720492105    0.7595398349    0.7276704506
H        0.9966045797    0.7374130685    0.8770735910
H        0.2362416973    1.3368638055   -0.6162695132
H       -0.4109473104   -0.7762415706   -3.8044644201
H       -0.0727456634    0.6172871990   -2.8000552437
H        0.7255568440   -3.8681220609   -0.1939178299
H       -3.4651590616    1.0568523716   -1.9799319497
25   

C        0.2483371012   -5.5580699577   -3.9438294801
C        0.5597996547   -4.7613142496   -2.7656148014
C       -0.5826573288   -4.8959809286   -4.8088590591
C       -0.1655703380   -1.1641785250   -1.7355225498
C        0.0805820470   -2.5119024531   -1.7486288515
C       -0.0484109165   -3.5247645405   -2.7823181867
C        0.2565597833   -0.7126326464   -0.4206925450
C       -2.1823138249   -0.0900730649   -2.8010804080
C        0.2196116786    0.6811455770    0.1344919581
C       -0.6641905108   -0.2516739384   -2.8384336436
N        0.6918596818   -1.7269032227    0.2787660662
N        0.5803054097   -2.8282187828   -0.5133892106
O       -2.8507646627   -0.6446104228   -3.6575462172
O       -2.7094583310    0.7228162619   -1.8522773706
S       -1.0115589043   -3.2936300283   -4.2235161091
H        0.6313466425   -6.5577760073   -4.1187604148
H        1.2142558848   -5.1135146278   -1.9778608849
H       -0.9409518044   -5.3005997002   -5.7484439082
H       -0.4890083178    1.3051804973   -0.4138237919
H       -0.0727725653    0.6537292666    1.1878844581
H        1.2145421009    1.1284966100    0.0636499681
H       -0.3516755541   -0.6230415569   -3.8168746076
H       -0.2111722236    0.7367049177   -2.7279364005
H        0.8162823866   -3.7734648799   -0.2229346539
H       -3.6720843528    0.7036477178   -1.9782100610
25   

C       -0.0648612815   -5.5860442730   -3.8258174421
C        0.2704506559   -4.7888433404   -2.6543593031
C       -0.6406840422   -4.8328146691   -4.8148301375
C       -0.1093277310   -1.0691089042   -1.8209780593
C        0.1480848970   -2.4163602019   -1.8128005747
C       -0.0644025025   -3.4598964839   -2.8006841530
C        0.3577094836   -0.5803295395   -0.5365142652
C       -2.2259559143   -0.2022180342   -2.9028541468
C        0.2743362101    0.8205816838   -0.0054736345
C       -0.6986640506   -0.1858312371   -2.9045402673
N        0.8473958756   -1.5685533701    0.1632241297
N        0.7210570988   -2.6890629221   -0.5991937953
O       -2.8016594813   -0.3416793529   -3.9696036947
O       -2.8701065938   -0.0368769837   -1.7201175398
S       -0.7934678379   -3.1411661547   -4.3581899463
H        0.1194975312   -6.6519432083   -3.9072173531
H        0.7346319429   -5.2142253093   -1.7734963427
H       -0.9688621676   -5.2219427274   -5.7718525288
H       -0.5742723078    1.3505964613   -0.4449387682
H        0.1537447311    0.8009598113    1.0814274590
H        1.1952841777    1.3587923621   -0.2445712456
H       -0.3208575915   -0.4825924203   -3.8851661561
H       -0.3738950806    0.8463313832   -2.7551827492
H        1.0139781189   -3.6171752700   -0.3065508272
H       -3.8199847924   -0.0928824403   -1.9117349231
