30   

C       -1.4854496948    0.9634569190    0.9076647495
C       -1.2341566000   -0.2557730187    1.5397196049
C       -0.5037058848    1.5386455554    0.0991572735
C        5.5528356422    1.2263096592   -1.2597802797
C       -0.0016993567   -0.8969106170    1.3688503563
C        0.7285132126    0.8985445136   -0.0723265442
C        5.1995653485    0.0113285547   -1.8384493779
C        4.8896724620    1.6546003476   -0.1147634677
C        1.0067420072   -0.3261700446    0.5726806518
C        3.4642495892   -0.3164043582   -0.1651246874
C        4.1827640153   -0.7788849238   -1.2957703234
C        3.8575028098    0.8967286834    0.4419744129
C        2.2913810884   -1.0575555883    0.3842140039
C        3.8259363103   -3.1611583010   -1.1471088323
C        3.5598032707   -3.1145706463    0.3600482389
N        2.3393170113   -2.3409428935    0.6754392712
N        3.9382354469   -2.0142882622   -1.8967851353
O        3.9824478373   -4.2220750227   -1.7310550077
F        3.2554269058    1.3460255699    1.5678909859
H       -2.4412434264    1.4580466374    1.0395460151
H       -1.9960911527   -0.7101709447    2.1628122714
H       -0.6985471405    2.4799547063   -0.4020482814
H        6.3487014670    1.8259583468   -1.6892910028
H        0.1592921333   -1.8455300086    1.8701541006
H        1.4601589560    1.3604466063   -0.7250843791
H        5.7387436614   -0.3302955392   -2.7145526263
H        5.1701040334    2.5883986248    0.3580415193
H        3.4378080531   -4.1412080376    0.7163532711
H        4.4288072776   -2.6890523342    0.8697741187
H        4.2578055429   -2.1997575373   -2.8387605980
30   

C       -1.4479568755    1.0163144038    0.9392902316
C       -1.1304370680   -0.1085337609    1.7044523320
C       -0.5603880355    1.4587878740   -0.0441770068
C        5.5529695137    1.2402757722   -1.1688076130
C        0.0729570879   -0.7897681393    1.4875012855
C        0.6425577608    0.7778030639   -0.2605657031
C        5.2415841619    0.0296102176   -1.7791364023
C        4.8295066067    1.6471574225   -0.0532961731
C        0.9777853201   -0.3570938044    0.5053286860
C        3.4370081711   -0.3438618499   -0.1901524682
C        4.2097048449   -0.7797010902   -1.2961180806
C        3.7816769508    0.8705276824    0.4450478823
C        2.2481215831   -1.1034158293    0.2910800637
C        3.8355681316   -3.1682461245   -1.2352286999
C        3.4986718892   -3.1685024875    0.2576067775
N        2.2729850494   -2.3937339850    0.5478943255
N        3.9980392712   -1.9997422400   -1.9402438282
O        4.0098044742   -4.2111104463   -1.8459854961
F        3.1218681281    1.3034410520    1.5447166548
H       -2.3811003015    1.5423248565    1.1068890117
H       -1.8174070869   -0.4568560897    2.4673166244
H       -0.8048850156    2.3290107304   -0.6426243038
H        6.3606991708    1.8548961657   -1.5525382990
H        0.2991933963   -1.6620181535    2.0918489751
H        1.3134053330    1.1322464572   -1.0353747961
H        5.8234833321   -0.2919051492   -2.6352815932
H        5.0738280576    2.5793752460    0.4421043817
H        3.3520319962   -4.2052824117    0.5729370696
H        4.3474180327   -2.7696572010    0.8202494111
H        4.3615299133   -2.1589745251   -2.8710546999
30   

C       -1.4080199114    1.0523475125    0.9474828297
C       -0.9993841016    0.0429999108    1.8235619000
C       -0.6373297420    1.3465876106   -0.1803389059
C        5.5647430928    1.2492399638   -1.0697714906
C        0.1766908086   -0.6726767159    1.5705439685
C        0.5382036363    0.6303890613   -0.4314266354
C        5.2886595340    0.0489619185   -1.7159582107
C        4.7894243571    1.6307209933    0.0191627743
C        0.9550072189   -0.3946449240    0.4381513116
C        3.4220056168   -0.3697718904   -0.2112912901
C        4.2425910092   -0.7763595401   -1.2943039490
C        3.7269024415    0.8380620375    0.4574802538
C        2.2192823203   -1.1462883211    0.2003763477
C        3.8577868777   -3.1673721344   -1.3252336243
C        3.4581685902   -3.2159917696    0.1506812213
N        2.2274609029   -2.4423651790    0.4212994969
N        4.0611383550   -1.9776569892   -1.9819781495
O        4.0499600618   -4.1901884940   -1.9638171974
F        3.0181546294    1.2502441356    1.5343561907
H       -2.3195861316    1.6058045346    1.1430520756
H       -1.5931742524   -0.1870676613    2.7008614663
H       -0.9498533229    2.1302194340   -0.8611103754
H        6.3834913256    1.8767096712   -1.4064250541
H        0.4846194931   -1.4526877329    2.2589335109
H        1.1292068103    0.8694826921   -1.3088877784
H        5.9080327157   -0.2505283474   -2.5535839205
H        5.0035650144    2.5560939631    0.5406422000
H        3.2922278495   -4.2619417915    0.4233143319
H        4.2859737513   -2.8440973192    0.7609331702
H        4.4643679845   -2.1090523179   -2.9007117987
30   

C       -1.3746517655    1.0758041871    0.9324056687
C       -0.8515929096    0.2233015427    1.9089081083
C       -0.7361992293    1.1874664495   -0.3057869367
C        5.5859745002    1.2530609934   -0.9538266169
C        0.3055413916   -0.5188820414    1.6451010390
C        0.4204529668    0.4442039166   -0.5661712999
C        5.3296190893    0.0716231943   -1.6408519671
C        4.7787831273    1.6039731164    0.1217447069
C        0.9461565219   -0.4278208822    0.4029578978
C        3.4219240389   -0.3918800853   -0.2007514707
C        4.2726855283   -0.7654884295   -1.2729909378
C        3.7050633452    0.7992552494    0.5078701870
C        2.2093964419   -1.1829946519    0.1494472314
C        3.8785601288   -3.1541958784   -1.4019699661
C        3.4354036206   -3.2565768691    0.0583515228
N        2.2028349412   -2.4848505300    0.3249486480
N        4.1090553515   -1.9421829004   -2.0066542060
O        4.0822828961   -4.1531106536   -2.0738965488
F        2.9680320632    1.1848785841    1.5751665437
H       -2.2711417819    1.6505598747    1.1360414299
H       -1.3408634605    0.1370210546    2.8723941353
H       -1.1355498605    1.8513906038   -1.0640362077
H        6.4129770257    1.8902802891   -1.2494472183
H        0.7086350022   -1.1750340301    2.4091236474
H        0.9148663796    0.5426019093   -1.5265202955
H        5.9721423094   -0.2029846220   -2.4695047363
H        4.9760174179    2.5153387856    0.6736343538
H        3.2548047247   -4.3110160423    0.2851795199
H        4.2477475823   -2.9151178610    0.7059850111
H        4.5385341076   -2.0421878872   -2.9174258828
30   

C       -1.3916778276    1.0869783765    0.8892939131
C       -0.7309606095    0.4670976880    1.9534269346
C       -0.8886678333    0.9585189778   -0.4079759480
C        5.6274698325    1.2245431228   -0.8277637129
C        0.4282221942   -0.2815938622    1.7183203077
C        0.2705474335    0.2090761059   -0.6375330075
C        5.3444617088    0.0817798937   -1.5668219778
C        4.8311092241    1.5415940658    0.2657063167
C        0.9367403781   -0.4283160278    0.4227237435
C        3.4308166150   -0.4093865093   -0.1413538925
C        4.2715068804   -0.7493704578   -1.2335839369
C        3.7417599067    0.7426649093    0.6189770613
C        2.2006859716   -1.1926485338    0.1667090963
C        3.8312836936   -3.1212430707   -1.4766311946
C        3.3800949838   -3.2848888675   -0.0245685113
N        2.1621535756   -2.5007879573    0.2705525181
N        4.0823491741   -1.8858075334   -2.0227717870
O        4.0180395261   -4.0901702209   -2.1957430558
F        3.0205466127    1.0968928244    1.7064063045
H       -2.2901851135    1.6662960944    1.0698186715
H       -1.1153221797    0.5659182555    2.9622006425
H       -1.3955295556    1.4397106583   -1.2367090325
H        6.4661274130    1.8579847144   -1.0975004273
H        0.9371391397   -0.7580790574    2.5491850589
H        0.6582330196    0.1178480633   -1.6463834756
H        5.9781049495   -0.1669352947   -2.4103404320
H        5.0489250132    2.4225997963    0.8576810797
H        3.1761409681   -4.3449152333    0.1505225206
H        4.1958544405   -2.9913653687    0.6419638191
H        4.5098127365   -1.9500420348   -2.9377097310
30   

C       -1.2749171986    0.7195763828    0.6763968899
C       -0.4807090665    0.4407227256    1.7910274628
C       -0.8366928079    0.3437832771   -0.5949560986
C        5.8629400989    1.3333160137   -0.7000653334
C        0.7486887373   -0.2099599020    1.6321441983
C        0.3933071960   -0.3055743131   -0.7464269255
C        5.5994202892    0.2441961504   -1.5210354094
C        5.0835580607    1.5337792142    0.4315783345
C        1.2052906993   -0.5911517019    0.3652192855
C        3.7296417080   -0.4215961943   -0.1028574088
C        4.5609081855   -0.6454843852   -1.2335428067
C        4.0275495107    0.6743620396    0.7422024853
C        2.5272318271   -1.2719643713    0.1447278193
C        4.2256311534   -3.0085348837   -1.6420397621
C        3.7892461578   -3.2941870500   -0.2044857732
N        2.5376968883   -2.5846372574    0.1340295525
N        4.3994505392   -1.7260517311   -2.1034189205
O        4.4562693686   -3.9142214306   -2.4277864841
F        3.3335548425    0.9184131979    1.8739182724
H       -2.2284631170    1.2210983148    0.7978634200
H       -0.8185073801    0.7235452741    2.7815121253
H       -1.4493083780    0.5528378522   -1.4646074098
H        6.6746661387    2.0138584787   -0.9352458397
H        1.3423306779   -0.4372393241    2.5104426870
H        0.7251298290   -0.5954739917   -1.7376562532
H        6.2221665140    0.0834203730   -2.3935178905
H        5.2893008678    2.3702919574    1.0888250573
H        3.6313796788   -4.3715891298   -0.1036274105
H        4.5920046795   -3.0105020075    0.4818089660
H        4.8163816959   -1.7047164789   -3.0251827527
30   

C       -1.3051609647    0.6953305358    0.5625806759
C       -0.4303056708    0.7247490704    1.6494538212
C       -0.9341117285    0.0198663326   -0.5996825154
C        5.9230809399    1.3024172707   -0.5798965288
C        0.8148485308    0.0883425282    1.5708807315
C        0.3112417740   -0.6123687146   -0.6717405101
C        5.5590143653    0.3103055534   -1.4807244284
C        5.2456551327    1.4014520252    0.6281010385
C        1.2153879045   -0.5823349093    0.4074991836
C        3.7654880521   -0.4308156642    0.0001048458
C        4.5119771554   -0.5713175108   -1.2010168957
C        4.1846278318    0.5459018919    0.9340781037
C        2.5418808964   -1.2651962186    0.2249849833
C        4.1328261020   -2.8918803249   -1.7479464761
C        3.7603263902   -3.2714686838   -0.3124293627
N        2.5287146002   -2.5739395434    0.1134395497
N        4.2694075342   -1.5797057597   -2.1362033755
O        4.3268435992   -3.7442784403   -2.6004000999
F        3.6198623831    0.6665329669    2.1514671806
H       -2.2706349372    1.1848098842    0.6244526467
H       -0.7210831963    1.2309861494    2.5629283555
H       -1.6100841953   -0.0179141619   -1.4464258151
H        6.7400598270    1.9787285962   -0.8090458870
H        1.4303381078    0.0886770051    2.4587707775
H        0.5872102816   -1.1362420222   -1.5809640744
H        6.1125152289    0.2151430123   -2.4077987763
H        5.5406997198    2.1511302113    1.3526511428
H        3.5958451893   -4.3519329237   -0.2748277772
H        4.5930166964   -3.0368092011    0.3566227050
H        4.6342084513   -1.4980927276   -3.0764900372
30   

C       -1.3625087782    0.6233425701    0.5240595311
C       -0.3881175227    0.9395207730    1.4703367031
C       -1.0663486472   -0.2914051114   -0.4843309327
C        5.9468423057    1.3164322317   -0.4267224988
C        0.8805870571    0.3491092431    1.4055235977
C        0.2015118978   -0.8777166698   -0.5442847161
C        5.5133830241    0.4476386367   -1.4217473504
C        5.3468353296    1.2665826162    0.8267373530
C        1.2103537855   -0.5631871582    0.3913634498
C        3.7753018618   -0.4187882330    0.0482782042
C        4.4619224212   -0.4423223928   -1.1911357842
C        4.2842844201    0.3958272287    1.0824581145
C        2.5378759208   -1.2458880739    0.2399356253
C        4.0633446845   -2.7106975521   -1.8922524795
C        3.7487707217   -3.1995615219   -0.4722566100
N        2.5262811411   -2.5458536531    0.0429017730
N        4.1712920131   -1.3707206468   -2.1925702265
O        4.2301327788   -3.4983965746   -2.8102362537
F        3.8123720764    0.3195775361    2.3448000773
H       -2.3445887483    1.0798816117    0.5757393238
H       -0.6164606667    1.6415534576    2.2642725603
H       -1.8176878429   -0.5514612511   -1.2213783718
H        6.7668220109    2.0011556201   -0.6168994701
H        1.5747776454    0.6201615708    2.1833149424
H        0.4101448924   -1.5907010114   -1.3353616161
H        6.0202601006    0.4488317726   -2.3798411543
H        5.7099852901    1.9023592883    1.6253858007
H        3.5939150540   -4.2815465407   -0.5068892868
H        4.6031092059   -3.0056806180    0.1825791401
H        4.4988629771   -1.2184206643   -3.1377160020
30   

C       -1.3953839420    0.5925442585    0.5638233678
C       -0.3302352426    1.1088881181    1.2999665962
C       -1.1811345327   -0.4974077146   -0.2763569767
C        5.9682367204    1.3169304660   -0.2931121960
C        0.9455428988    0.5403426082    1.1948234301
C        0.0938544909   -1.0624111626   -0.3772741777
C        5.5344094430    0.5144054012   -1.3435633286
C        5.3546231541    1.2007045631    0.9505766871
C        1.1951930337   -0.5529891977    0.3490428314
C        3.7675022691   -0.4052246380    0.0524995867
C        4.4685577282   -0.3724482843   -1.1760301663
C        4.2765556380    0.3322965904    1.1412331941
C        2.5225424563   -1.2307163947    0.1990942365
C        4.0686037382   -2.6046114819   -1.9747989452
C        3.7524362432   -3.1510449635   -0.5747122519
N        2.5242452830   -2.5254250862   -0.0369209583
N        4.1827792574   -1.2533614469   -2.2201464271
O        4.2368902069   -3.3552804152   -2.9230883335
F        3.7789201726    0.1807466226    2.3896761125
H       -2.3825246906    1.0336002297    0.6451172817
H       -0.4908707985    1.9559769848    1.9572007416
H       -2.0019189023   -0.9105712981   -0.8516905042
H        6.8004193356    1.9989145649   -0.4337458972
H        1.7216074026    0.9975602987    1.7868069141
H        0.2275004035   -1.9128748543   -1.0378666094
H        6.0538989572    0.5616283743   -2.2937171240
H        5.7191490085    1.7804813242    1.7901743821
H        3.6042134935   -4.2317050691   -0.6524556466
H        4.6038623376   -2.9790512619    0.0899759786
H        4.5168881255   -1.0619800615   -3.1558354204
30   

C       -1.4013459735    0.6020699681    0.6177991044
C       -0.2712514619    1.2484956260    1.1151511583
C       -1.2580970656   -0.6192114608   -0.0359374056
C        5.9829392821    1.3016239242   -0.1745744634
C        0.9979020472    0.6771238559    0.9595581623
C        0.0105147611   -1.1873409861   -0.1882294857
C        5.5796049187    0.5336739515   -1.2628598171
C        5.3173629384    1.1646531518    1.0401715170
C        1.1767213221   -0.5509647835    0.3009932529
C        3.7504551548   -0.3999427001    0.0392127777
C        4.4971496741   -0.3432091755   -1.1608125275
C        4.2208436227    0.3077772674    1.1644245579
C        2.5016625607   -1.2251632483    0.1332735185
C        4.1046175797   -2.5465405733   -2.0356937195
C        3.7521177234   -3.1282379007   -0.6588437794
N        2.5127351043   -2.5148091203   -0.1321463400
N        4.2388702735   -1.1905116116   -2.2388224311
O        4.2928098319   -3.2722651647   -2.9995572797
F        3.6488382190    0.1502398915    2.3812430434
H       -2.3835153579    1.0454659077    0.7375037242
H       -0.3756424822    2.2009420069    1.6223542375
H       -2.1295587697   -1.1324430336   -0.4265162734
H        6.8291171221    1.9749401300   -0.2643958209
H        1.8282618773    1.2454603406    1.3499596661
H        0.0807262417   -2.1413337362   -0.7002588628
H        6.1360170282    0.5992845449   -2.1907745708
H        5.6523779369    1.7211214640    1.9074273678
H        3.6040527668   -4.2060787601   -0.7690380901
H        4.5876413555   -2.9766135097    0.0304972691
H        4.6018507135   -0.9749337040   -3.1583576101
30   

C       -1.3883054361    0.6303816945    0.6684341238
C       -0.2218460302    1.3520085027    0.9164629508
C       -1.2969222060   -0.6830131348    0.2135498378
C        5.9871164977    1.2652444406   -0.0644505074
C        1.0321794345    0.7632588111    0.7118254896
C       -0.0433015791   -1.2687769108    0.0110983872
C        5.6288852752    0.5164345100   -1.1815424144
C        5.2559186786    1.1277190918    1.1116156583
C        1.1572832009   -0.5583686788    0.2527167738
C        3.7284524726   -0.4144806634    0.0166424526
C        4.5319507362   -0.3479800666   -1.1462783555
C        4.1434907704    0.2849390946    1.1693195515
C        2.4754256581   -1.2336682763    0.0526186938
C        4.1432380437   -2.5223290429   -2.0948393558
C        3.7323961285   -3.1320833156   -0.7477993236
N        2.4839596441   -2.5162821266   -0.2460086439
N        4.3106681969   -1.1650822394   -2.2551505787
O        4.3575591057   -3.2261346403   -3.0694412630
F        3.4859946228    0.1475786293    2.3448119180
H       -2.3589214515    1.0871244869    0.8261504148
H       -0.2865278803    2.3762979108    1.2656485137
H       -2.1972695162   -1.2541269950    0.0171044745
H        6.8452122342    1.9283059243   -0.1030099886
H        1.8928856209    1.3894690557    0.8988862453
H       -0.0149179735   -2.2950594100   -0.3395324325
H        6.2308090233    0.5885058721   -2.0801229608
H        5.5480804718    1.6759654960    1.9994096282
H        3.5745251930   -4.2046225984   -0.8910530186
H        4.5450275431   -3.0100410670   -0.0260194788
H        4.7143403951   -0.9317746393   -3.1531535206
30   

C       -1.3666754535    0.6558655318    0.7264521356
C       -0.1966050897    1.4144007054    0.7282205507
C       -1.2970179133   -0.7120772444    0.4692625168
C        5.9774101303    1.2272845349    0.0311076305
C        1.0397534285    0.8075293991    0.4757963760
C       -0.0606965135   -1.3159278975    0.2182129731
C        5.6694266224    0.4891365570   -1.1077299775
C        5.1817346847    1.0958375489    1.1648333217
C        1.1405478513   -0.5688355882    0.2159807932
C        3.7055330177   -0.4373717280   -0.0122069439
C        4.5638132794   -0.3647566761   -1.1360101220
C        4.0597434367    0.2642999463    1.1603424948
C        2.4475223083   -1.2448981690   -0.0352086912
C        4.1704815155   -2.5062135028   -2.1634554399
C        3.6947346881   -3.1441375023   -0.8530103203
N        2.4432282831   -2.5174969113   -0.3735289077
N        4.3811216154   -1.1509839269   -2.2739576172
O        4.4066298327   -3.1859348789   -3.1500156207
F        3.3293372061    0.1457699005    2.2938345683
H       -2.3240178767    1.1262213471    0.9209569639
H       -0.2455320273    2.4800116729    0.9214091274
H       -2.2007815467   -1.3108618275    0.4642287024
H        6.8428556035    1.8817963891    0.0410449583
H        1.9088944294    1.4523310849    0.4651589704
H       -0.0443421099   -2.3835744442    0.0261719563
H        6.3155495693    0.5642407841   -1.9748277879
H        5.4284341647    1.6419975061    2.0676124947
H        3.5193111615   -4.2080823580   -1.0347826977
H        4.4830554243   -3.0626967466   -0.0992971130
H        4.8270608089   -0.9016411755   -3.1473337372
30   

C       -1.3429742721    0.6747019551    0.7788441890
C       -0.2022164333    1.4436071430    0.5455431769
C       -1.2602964489   -0.7161632487    0.7161048235
C        5.9605390670    1.1976759890    0.1148704879
C        1.0184729035    0.8235883441    0.2530448900
C       -0.0392794717   -1.3331217314    0.4242622207
C        5.6995579033    0.4684048974   -1.0410559266
C        5.1088831965    1.0719598360    1.2073483097
C        1.1291328790   -0.5746078033    0.1911146548
C        3.6845206585   -0.4559019296   -0.0397823521
C        4.5897519171   -0.3764183896   -1.1268094169
C        3.9819067573    0.2497283351    1.1470055458
C        2.4217998663   -1.2480046602   -0.1205837588
C        4.1846863118   -2.4796941500   -2.2377653184
C        3.6486949056   -3.1475973974   -0.9678260934
N        2.3993834256   -2.5080183222   -0.5008544765
N        4.4420520041   -1.1299930338   -2.2919321396
O        4.4346834038   -3.1314679983   -3.2396228541
F        3.1942200423    0.1433537732    2.2425923814
H       -2.2887788174    1.1545951781    1.0040256728
H       -0.2627907676    2.5252037803    0.5864823622
H       -2.1421460658   -1.3215648919    0.8925835036
H        6.8297526898    1.8450095186    0.1687059390
H        1.8735546835    1.4601679260    0.0585673502
H       -0.0039649495   -2.4166992858    0.3822251761
H        6.3835518931    0.5470978787   -1.8782782244
H        5.3141760702    1.6162894790    2.1215322215
H        3.4527896479   -4.1996630088   -1.1927594246
H        4.4146463165   -3.1136047265   -0.1879224039
H        4.9254154301   -0.8643399495   -3.1402510941
30   

C       -1.3258187162    0.6897533467    0.8275284025
C       -0.2425820440    1.4405038802    0.3661336023
C       -1.1988095380   -0.6934570865    0.9663574760
C        5.9463827346    1.1518968641    0.2131722915
C        0.9659650511    0.8097103227    0.0480803237
C        0.0102746077   -1.3213091035    0.6483075178
C        5.7239193597    0.4295148886   -0.9547457864
C        5.0471695034    1.0369085642    1.2675364558
C        1.1181926578   -0.5779453543    0.1932471059
C        3.6627337429   -0.4808333631   -0.0367872791
C        4.6087213654   -0.4018728827   -1.0896223158
C        3.9141332861    0.2282138592    1.1594328700
C        2.3944551000   -1.2527502402   -0.1713677642
C        4.1865383078   -2.4686311584   -2.2722608811
C        3.5941554706   -3.1580665659   -1.0407636159
N        2.3504090515   -2.5011038070   -0.5840937687
N        4.4905332148   -1.1281930143   -2.2756283842
O        4.4459793243   -3.0965844714   -3.2868101782
F        3.0802259635    0.1367986522    2.2216381420
H       -2.2627947333    1.1773230327    1.0722373308
H       -0.3394755842    2.5139143254    0.2496306040
H       -2.0374974803   -1.2837455609    1.3176785985
H        6.8199858954    1.7889924818    0.3046702192
H        1.7851463833    1.4159629483   -0.3224206216
H        0.0888489318   -2.3980524892    0.7563079270
H        6.4404175932    0.5064742497   -1.7644827935
H        5.2187321110    1.5799377634    2.1894053629
H        3.3764597933   -4.1967902915   -1.3044033564
H        4.3385515042   -3.1703025928   -0.2396776390
H        5.0080328123   -0.8527291095   -3.1003819094
30   

C       -1.3046327630    0.6989604407    0.8457336855
C       -0.3092787020    1.4099368200    0.1702009508
C       -1.0972391936   -0.6433392284    1.1725703168
C        5.9614732494    1.1062704781    0.2981799030
C        0.8932033564    0.7807096556   -0.1727417035
C        0.1057533216   -1.2697545891    0.8289738104
C        5.7649611298    0.4110742294   -0.8903529367
C        5.0254037227    0.9884172645    1.3191246326
C        1.1242359914   -0.5607883036    0.1655193635
C        3.6625071069   -0.4870004501   -0.0558214265
C        4.6411742233   -0.3982350641   -1.0784190352
C        3.8834516170    0.2011598974    1.1593806530
C        2.3878584588   -1.2329274708   -0.2481526963
C        4.2005238320   -2.4127234515   -2.3492412467
C        3.5593126549   -3.1334651266   -1.1618027574
N        2.3227950408   -2.4643634130   -0.7038327812
N        4.5443204415   -1.0836137032   -2.2907569099
O        4.4674126631   -3.0066831540   -3.3821261605
F        3.0153280650    0.1091607251    2.1937211777
H       -2.2372970597    1.1847199442    1.1097220054
H       -0.4707025384    2.4490641054   -0.0930931003
H       -1.8696278597   -1.2029319130    1.6878257298
H        6.8417093301    1.7268126864    0.4305447379
H        1.6502887697    1.3434265110   -0.7081069663
H        0.2526274141   -2.3160368828    1.0754772233
H        6.5073314621    0.4943562139   -1.6757739030
H        5.1741372605    1.5130830153    2.2554635570
H        3.3211011103   -4.1544522864   -1.4728013286
H        4.2840104581   -3.1986718845   -0.3454001069
H        5.0913879348   -0.7917862737   -3.0904439774
30   

C       -1.3150895933    0.7057051199    0.8560809865
C       -0.4309263144    1.3345405039   -0.0254428695
C       -0.9981882910   -0.5512238972    1.3786952812
C        5.9757530571    1.0336770297    0.4057143379
C        0.7711076543    0.7097294566   -0.3780236384
C        0.2041419951   -1.1732929208    1.0246654990
C        5.7914925348    0.3727486326   -0.8038404795
C        5.0139894639    0.9117912511    1.4016351323
C        1.1110176950   -0.5398070123    0.1575497092
C        3.6531758908   -0.5034982204   -0.0379993061
C        4.6554690685   -0.4071121169   -1.0374665788
C        3.8597385039    0.1531814110    1.1975257527
C        2.3687059663   -1.2163693691   -0.2797109710
C        4.1913362326   -2.3670102403   -2.3868408773
C        3.5085566228   -3.1124898486   -1.2390896158
N        2.2813701545   -2.4288236548   -0.7781083749
N        4.5695795159   -1.0511119260   -2.2733181061
O        4.4619409639   -2.9298613783   -3.4360292873
F        2.9683922959    0.0574812037    2.2113550300
H       -2.2476216482    1.1875029108    1.1276763424
H       -0.6791135108    2.3045664986   -0.4409376779
H       -1.6858777714   -1.0485627437    2.0531675413
H        6.8652583861    1.6321444755    0.5730250922
H        1.4443046319    1.2003683284   -1.0726898755
H        0.4385343238   -2.1561964424    1.4191458550
H        6.5523256769    0.4611705717   -1.5707950065
H        5.1515771326    1.4115509480    2.3531570135
H        3.2499378286   -4.1147916362   -1.5918138256
H        4.2156958421   -3.2267628502   -0.4127728991
H        5.1405719176   -0.7461987625   -3.0511086152
30   

C       -1.3380818352    0.7475588117    0.8333243560
C       -0.5734162105    1.2320262058   -0.2323594968
C       -0.9009373359   -0.3694985873    1.5512490417
C        5.9911151504    0.9683624693    0.5318686116
C        0.6306379848    0.6048018914   -0.5737384607
C        0.3028272801   -0.9947170195    1.2075535742
C        5.8052675061    0.3605436917   -0.7046401966
C        5.0193895075    0.8227410742    1.5144657114
C        1.0910485077   -0.4983622295    0.1556522339
C        3.6456737061   -0.5101658929    0.0090855299
C        4.6580370813   -0.3892651307   -0.9783584840
C        3.8538601897    0.0933528114    1.2712674920
C        2.3503728990   -1.1873814446   -0.2767086218
C        4.1722137320   -2.2801342703   -2.4165338561
C        3.4607072757   -3.0606908786   -1.3106847121
N        2.2426274594   -2.3703709066   -0.8363039190
N        4.5718734192   -0.9774286753   -2.2418928402
O        4.4438303149   -2.8014240490   -3.4867235860
F        2.9551130690   -0.0262798774    2.2750695597
H       -2.2719676295    1.2312070446    1.0968676756
H       -0.9163325133    2.0903119021   -0.7988957924
H       -1.4968246702   -0.7565933154    2.3699250202
H        6.8889471573    1.5446273766    0.7297759382
H        1.2109307721    0.9777418718   -1.4107740395
H        0.6309906042   -1.8717467959    1.7547297210
H        6.5732257050    0.4678739490   -1.4620049752
H        5.1576407824    1.2816587561    2.4862325740
H        3.1853938626   -4.0408199122   -1.7100145670
H        4.1547974647   -3.2255441470   -0.4818726114
H        5.1561357226   -0.6493648038   -3.0001607813
30   

C       -1.3592836798    0.7318282692    0.7412167491
C       -0.7068329995    0.9998998088   -0.4659974550
C       -0.8052417960   -0.1813206935    1.6432704255
C        6.0146301702    0.8814942078    0.6285561499
C        0.5047877718    0.3655113329   -0.7641132626
C        0.4053321921   -0.8158823751    1.3427804512
C        5.8049790762    0.3500781182   -0.6381856136
C        5.0630962588    0.6724413999    1.6186492675
C        1.0873620597   -0.5235980986    0.1491803092
C        3.6572194063   -0.5665734835    0.0614889492
C        4.6532724087   -0.3838355847   -0.9346528877
C        3.8929819708   -0.0423778974    1.3542806704
C        2.3549684202   -1.2225114471   -0.2563019269
C        4.1617314071   -2.1933388138   -2.4691869846
C        3.4562562819   -3.0332229351   -1.4038328923
N        2.2406256837   -2.3635777173   -0.8955477247
N        4.5483755708   -0.8970925622   -2.2291686945
O        4.4305495215   -2.6553704120   -3.5669668971
F        3.0214639500   -0.2253687676    2.3700711121
H       -2.2983178877    1.2220975290    0.9722645198
H       -1.1425820941    1.6946755285   -1.1749745656
H       -1.3169172861   -0.4050068951    2.5724222170
H        6.9154446370    1.4468001210    0.8437503763
H        0.9968043194    0.5658101508   -1.7098795676
H        0.8150294680   -1.5431782452    2.0349201286
H        6.5579894159    0.5049072670   -1.4023099358
H        5.2211190086    1.0701165800    2.6141006278
H        3.1785341411   -3.9905470696   -1.8536064706
H        4.1523899653   -3.2406759475   -0.5863815245
H        5.1221315768   -0.5236834130   -2.9743605847
30   

C       -1.3743744533    0.7201760501    0.6212145675
C       -0.8269817932    0.7176000616   -0.6641960738
C       -0.7135104655    0.0563800879    1.6581146399
C        6.0545229936    0.7935954508    0.6739234078
C        0.3906604434    0.0718642845   -0.9058593123
C        0.5029539612   -0.5923685706    1.4155290832
C        5.7823690258    0.3795629966   -0.6233673279
C        5.1635823609    0.4708194924    1.6887207672
C        1.0926369648   -0.5527874913    0.1381022851
C        3.6785600564   -0.6269425460    0.0971031487
C        4.6244266794   -0.3417358538   -0.9250507047
C        3.9881746098   -0.2346691679    1.4209643049
C        2.3643464633   -1.2594825517   -0.2413071938
C        4.1225818909   -2.0491010884   -2.5602318147
C        3.4617458386   -2.9719547590   -1.5345139061
N        2.2481124537   -2.3499955935   -0.9647120418
N        4.4683867998   -0.7556924547   -2.2495936842
O        4.3757728717   -2.4333240082   -3.6912319144
F        3.1949678875   -0.5433515263    2.4662302723
H       -2.3176097842    1.2205391029    0.8096397991
H       -1.3480044643    1.2110334729   -1.4768034120
H       -1.1510053202    0.0305475297    2.6496697937
H        6.9594266784    1.3505793024    0.8936423783
H        0.7993196602    0.0621570106   -1.9109261866
H        0.9566985942   -1.1507902520    2.2236202218
H        6.4926845978    0.6136662512   -1.4079358381
H        5.3757252599    0.7686153939    2.7087010806
H        3.1883093814   -3.9033560757   -2.0380893176
H        4.1799663028   -3.2167812376   -0.7470057316
H        5.0059828272   -0.3170760404   -2.9861487745
30   

C       -1.3457802745    0.7960243541    0.5082823597
C       -0.9576198564    0.4088688147   -0.7749736288
C       -0.5347629417    0.4817731072    1.6001698765
C        6.0158710684    0.6980364656    0.7981088611
C        0.2400330362   -0.2886128289   -0.9646328797
C        0.6642557160   -0.2163804281    1.4124875248
C        5.6760261985    0.4816797249   -0.5326811676
C        5.2211508290    0.1509175746    1.7997064805
C        1.0719711900   -0.6146682061    0.1226275039
C        3.6612515128   -0.7072596182    0.1432063242
C        4.5313102402   -0.2423405889   -0.8736555612
C        4.0626629440   -0.5657533537    1.4884966673
C        2.3452140741   -1.3322541737   -0.2156694625
C        4.0592067381   -1.8165795962   -2.6328583089
C        3.4896709056   -2.8690342379   -1.6722098665
N        2.2593781103   -2.3676772628   -1.0221631797
N        4.3262703609   -0.5284184100   -2.2246201714
O        4.2973454613   -2.0874792616   -3.7994217027
F        3.3865046492   -1.1568016876    2.4964913051
H       -2.2742333979    1.3360160465    0.6565540542
H       -1.5839602625    0.6481057384   -1.6269077249
H       -0.8365087598    0.7767860084    2.5988117747
H        6.9096386374    1.2591366333    1.0505426786
H        0.5238717033   -0.5773504778   -1.9715474440
H        1.2383359208   -0.4437222496    2.2957672743
H        6.3271464861    0.8617146996   -1.3114482345
H        5.5031923100    0.2697111191    2.8390675662
H        3.2544784065   -3.7687528787   -2.2475895486
H        4.2452998010   -3.1369885910   -0.9282462316
H        4.8088414962    0.0044111411   -2.9366849762
30   

C       -1.3582638929    0.8061160187    0.4889511301
C       -1.1130411815    0.1681753080   -0.7270748848
C       -0.3953811582    0.7619080146    1.4977195124
C        6.0116308604    0.6151561835    0.9010925397
C        0.0869787650   -0.5221218164   -0.9290982367
C        0.8067837207    0.0733047927    1.2972192756
C        5.6853278989    0.4838866404   -0.4452279664
C        5.1986966388    0.0181836353    1.8602519371
C        1.0590044750   -0.6080423121    0.0866607032
C        3.6489236996   -0.7110058632    0.1371393470
C        4.5360644758   -0.2040319922   -0.8410708215
C        4.0347398431   -0.6617200404    1.4921734488
C        2.3335954269   -1.3137094197   -0.2598973565
C        4.0788837167   -1.6964603966   -2.6696953978
C        3.5100353764   -2.7916066548   -1.7552699562
N        2.2687958913   -2.3284544697   -1.0962621212
N        4.3453789373   -0.4267305897   -2.2054296206
O        4.3231339081   -1.9182645228   -3.8453710065
F        3.3257697339   -1.3032871811    2.4492230971
H       -2.2887007559    1.3401940257    0.6459915369
H       -1.8517305336    0.2089189024   -1.5195659823
H       -0.5766424176    1.2685189209    2.4389159672
H        6.9099259393    1.1473681944    1.1964307295
H        0.2499313790   -0.9957028524   -1.8917539924
H        1.5206113983    0.0984944558    2.1053099009
H        6.3515827073    0.8982365957   -1.1930965794
H        5.4705164851    0.0688494322    2.9078688423
H        3.2886322024   -3.6700763643   -2.3677353854
H        4.2616288150   -3.0826251757   -1.0158933268
H        4.8346399959    0.1363929219   -2.8890248385
30   

C       -1.3836889330    0.7697877961    0.5317957098
C       -1.2454930017   -0.0564412279   -0.5830948415
C       -0.3050226287    0.9429273224    1.3986908361
C        6.0134946069    0.5398609000    0.9952448029
C       -0.0368606442   -0.7195874896   -0.8227335962
C        0.9053280927    0.2819210833    1.1601752739
C        5.7267372815    0.4464562833   -0.3634649029
C        5.1503682206   -0.0470416396    1.9160711604
C        1.0542852004   -0.5929591113    0.0599327243
C        3.6412978568   -0.7031096428    0.1279889030
C        4.5717431432   -0.1993475202   -0.8108608063
C        3.9791768107   -0.6827706856    1.4966308265
C        2.3300522376   -1.2797451729   -0.3125517803
C        4.1329486256   -1.6317042568   -2.6897797063
C        3.5281955459   -2.7392132680   -1.8149843336
N        2.2782586215   -2.2775962608   -1.1711258284
N        4.4159191764   -0.3817327244   -2.1851771855
O        4.3999351614   -1.8282512368   -3.8650281569
F        3.1996963632   -1.2942475130    2.4193034017
H       -2.3206156659    1.2830878849    0.7170013107
H       -2.0748843845   -0.1831909785   -1.2696912700
H       -0.4016994381    1.5997378569    2.2557781186
H        6.9172612108    1.0383864081    1.3300828026
H        0.0303902000   -1.3401561383   -1.7101259404
H        1.7139512613    0.4878483601    1.8457440862
H        6.4280985557    0.8571435537   -1.0806467183
H        5.3855249598   -0.0197310090    2.9734258883
H        3.3098962691   -3.5997844839   -2.4533956143
H        4.2591535352   -3.0581066716   -1.0665095659
H        4.9336741544    0.1893218260   -2.8406272592
30   

C       -1.3959364522    0.7308933117    0.5957828666
C       -1.3379368518   -0.2479746118   -0.3956908529
C       -0.2357910740    1.0821016854    1.2850093515
C        6.0054970891    0.4600395277    1.0702670019
C       -0.1262386659   -0.8839998042   -0.6885068288
C        0.9769444660    0.4480015680    0.9929684717
C        5.7684874323    0.3927556289   -0.2994978642
C        5.0854193567   -0.1021571974    1.9499715924
C        1.0523946150   -0.5748946119    0.0188859514
C        3.6319643123   -0.6998571357    0.0949870440
C        4.6115398956   -0.2088962129   -0.8008861727
C        3.9111388743   -0.6928471156    1.4777068154
C        2.3251406760   -1.2411842249   -0.3933222778
C        4.1878534964   -1.5711521901   -2.7363980878
C        3.5281727376   -2.6843159062   -1.9122793612
N        2.2747767682   -2.2100987974   -1.2848717304
N        4.4983251567   -0.3492009830   -2.1841569653
O        4.4826537407   -1.7406889797   -3.9092064513
F        3.0601350064   -1.2593828280    2.3651799108
H       -2.3351179196    1.2235348778    0.8212589160
H       -2.2331121030   -0.5152918778   -0.9457390134
H       -0.2715527323    1.8564976727    2.0428675150
H        6.9114562496    0.9241377934    1.4461835584
H       -0.1286518687   -1.6295123046   -1.4765720571
H        1.8500127994    0.7906411679    1.5311087341
H        6.5092234507    0.7914668326   -0.9830851614
H        5.2753325146   -0.0871794346    3.0166626813
H        3.3037915941   -3.5189366333   -2.5822435534
H        4.2300725552   -3.0461127037   -1.1555830176
H        5.0534781448    0.2243293326   -2.8059790381
30   

C       -1.3921573477    0.6951801166    0.6659555362
C       -1.3800389678   -0.4103956057   -0.1848335754
C       -0.1886338578    1.1980902801    1.1601926923
C        5.9903133872    0.3835188021    1.1511297966
C       -0.1686602618   -1.0188420997   -0.5330618207
C        1.0232108417    0.5912566957    0.8125740796
C        5.8114165074    0.3296507436   -0.2278511006
C        5.0107867293   -0.1430159635    1.9869928743
C        1.0564389666   -0.5485410046   -0.0233314457
C        3.6261316705   -0.6973844874    0.0657491627
C        4.6576979233   -0.2288467702   -0.7841513992
C        3.8387605234   -0.6908230792    1.4612232674
C        2.3243245580   -1.1945799769   -0.4736934371
C        4.2491095311   -1.5203839311   -2.7753722564
C        3.5208104989   -2.6291594485   -2.0080183737
N        2.2680659010   -2.1301731147   -1.3995552708
N        4.5946623976   -0.3326046164   -2.1739696165
O        4.5751472364   -1.6660656438   -3.9430942697
F        2.9232362991   -1.2123934660    2.3109448728
H       -2.3312225307    1.1664038462    0.9336930508
H       -2.3112601989   -0.7984569004   -0.5817554332
H       -0.1914829919    2.0672494482    1.8081355534
H        6.8944342137    0.8142449405    1.5688755839
H       -0.2046645724   -1.8703425741   -1.2042860130
H        1.9330445010    1.0388723074    1.1922653237
H        6.5936629425    0.7086276473   -0.8754938955
H        5.1504507060   -0.1317698800    3.0614841130
H        3.2853991906   -3.4329429886   -2.7110926207
H        4.1854343838   -3.0419859072   -1.2438550104
H        5.1931398244    0.2355588931   -2.7594826309
