30   

C       -1.4854496036    0.9634570429    0.9076649539
C       -1.2341565629   -0.2557729692    1.5397196878
C       -0.5037057647    1.5386457203    0.0991575418
C        5.5528356186    1.2263095867   -1.2597803719
C       -0.0016993567   -0.8969106170    1.3688503563
C        0.7285132997    0.8985446370   -0.0723263496
C        5.1995652701    0.0113284859   -1.8384494515
C        4.8896725139    1.6546002912   -0.1147635175
C        1.0067420072   -0.3261700446    0.5726806518
C        3.4642495892   -0.3164043582   -0.1651246874
C        4.1827639458   -0.7788849598   -1.2957703397
C        3.8575028682    0.8967286577    0.4419744104
C        2.2913810884   -1.0575555883    0.3842140039
C        3.8259361965   -3.1611583293   -1.1471087327
C        3.5598033126   -3.1145706135    0.3600483689
N        2.3393170840   -2.3409428442    0.6754394747
N        3.9382352962   -2.0142883146   -1.8967850890
O        3.9824476010   -4.2220750793   -1.7310548889
F        3.2554270290    1.3460255415    1.5678910186
H       -2.4412433085    1.4580467973    1.0395462785
H       -1.9960911245   -0.7101709108    2.1628123328
H       -0.6985469714    2.4799549361   -0.4020479100
H        6.3487014269    1.8259582584   -1.6892911454
H        0.1592920916   -1.8455300527    1.8701540303
H        1.4601590664    1.3604467810   -0.7250841226
H        5.7387435248   -0.3302956350   -2.7145527247
H        5.1701041371    2.5883985532    0.3580414677
H        3.4378081141   -4.1412079893    0.7163534532
H        4.4288073695   -2.6890522870    0.8697741494
H        4.2578052483   -2.1997576254   -2.8387605927
30   

C       -1.4479566843    1.0163146483    0.9392905421
C       -1.1304369860   -0.1085336645    1.7044524648
C       -0.5603877998    1.4587881891   -0.0441766231
C        5.5529696698    1.2402755873   -1.1688075482
C        0.0729570879   -0.7897681393    1.4875012855
C        0.6425579138    0.7778032806   -0.2605654506
C        5.2415843307    0.0296099873   -1.7791362561
C        4.8295066709    1.6471573785   -0.0532962192
C        0.9777853201   -0.3570938044    0.5053286860
C        3.4370081711   -0.3438618499   -0.1901524682
C        4.2097049336   -0.7797012285   -1.2961179559
C        3.7816769506    0.8705277191    0.4450478188
C        2.2481215831   -1.1034158293    0.2910800637
C        3.8355683251   -3.1682462497   -1.2352282081
C        3.4986721047   -3.1685023854    0.2576072848
N        2.2729852249   -2.3937339004    0.5478947584
N        3.9980393936   -1.9997424715   -1.9402435326
O        4.0098047036   -4.2111106618   -1.8459848391
F        3.1218680929    1.3034411911    1.5447165291
H       -2.3811000510    1.5423251737    1.1068894162
H       -1.8174070197   -0.4568560328    2.4673167268
H       -0.8048846718    2.3290111858   -0.6426237577
H        6.3606993967    1.8548959058   -1.5525382023
H        0.2991933069   -1.6620182504    2.0918488686
H        1.3134055238    1.1322467567   -1.0353744725
H        5.8234835860   -0.2919054949   -2.6352813467
H        5.0738281049    2.5793752420    0.4421042701
H        3.3520322706   -4.2052822701    0.5729377347
H        4.3474182502   -2.7696569888    0.8202498373
H        4.3615300307   -2.1589748844   -2.8710543869
30   

C       -1.4080196740    1.0523478305    0.9474830878
C       -0.9993840076    0.0430000364    1.8235620026
C       -0.6373294377    1.3465880229   -0.1803385754
C        5.5647430717    1.2492399134   -1.0697716445
C        0.1766908086   -0.6726767159    1.5705439685
C        0.5382038446    0.6303893510   -0.4314264061
C        5.2886595148    0.0489618110   -1.7159582616
C        4.7894243501    1.6307210249    0.0191626022
C        0.9550072189   -0.3946449240    0.4381513116
C        3.4220056168   -0.3697718904   -0.2112912901
C        4.2425910113   -0.7763596258   -1.2943039036
C        3.7269024363    0.8380620981    0.4574801538
C        2.2192823203   -1.1462883211    0.2003763477
C        3.8577869299   -3.1673722165   -1.3252332492
C        3.4581687825   -3.2159916581    0.1506816517
N        2.2274610693   -2.4423651046    0.4212999354
N        4.0611383603   -1.9776571578   -1.9819779493
O        4.0499600290   -4.1901886564   -1.9638167171
F        3.0181546237    1.2502442862    1.5343560550
H       -2.3195858222    1.6058049446    1.1430524108
H       -1.5931741917   -0.1870675694    2.7008615388
H       -0.9498528930    2.1302200164   -0.8611099080
H        6.3834912970    1.8767096051   -1.4064252602
H        0.4846194006   -1.4526878395    2.2589334319
H        1.1292070842    0.8694830924   -1.3088874760
H        5.9080326823   -0.2505285115   -2.5535839608
H        5.0035650206    2.5560940328    0.5406419566
H        3.2922281300   -4.2619416501    0.4233149226
H        4.2859739807   -2.8440970799    0.7609334712
H        4.4643679472   -2.1090525870   -2.9007116027
30   

C       -1.3746514737    1.0758045739    0.9324058334
C       -0.8515927948    0.2233017026    1.9089081735
C       -0.7361988344    1.1874669611   -0.3057867079
C        5.5859744248    1.2530609851   -0.9538268551
C        0.3055413916   -0.5188820414    1.6451010390
C        0.4204532496    0.4442042808   -0.5661711271
C        5.3296190339    0.0716231066   -1.6408520727
C        4.7787830935    1.6039731733    0.1217444813
C        0.9461565219   -0.4278208822    0.4029578978
C        3.4219240389   -0.3918800853   -0.2007514707
C        4.2726855221   -0.7654885152   -1.2729909067
C        3.7050633419    0.7992553140    0.5078700795
C        2.2093964419   -1.1829946519    0.1494472314
C        3.8785602197   -3.1541959861   -1.4019695605
C        3.4354038079   -3.2565767807    0.0583519813
N        2.2028351011   -2.4848504726    0.3249490950
N        4.1090553701   -1.9421830926   -2.0066540020
O        4.0822829818   -4.1531108536   -2.0738960063
F        2.9680320868    1.1848787266    1.5751664245
H       -2.2711414173    1.6505603618    1.1360416306
H       -1.3408633925    0.1370211637    2.8723941729
H       -1.1355492897    1.8513913278   -1.0640358860
H        6.4129769079    1.8902802846   -1.2494475653
H        0.7086348799   -1.1750341882    2.4091235767
H        0.9148667746    0.5426024024   -1.5265200539
H        5.9721422258   -0.2029847776   -2.4695048420
H        4.9760173948    2.5153388935    0.6736340383
H        3.2548049788   -4.3110159312    0.2851801311
H        4.2477478003   -2.9151176502    0.7059853664
H        4.5385340952   -2.0421881955   -2.9174256804
30   

C       -1.3916776424    1.0869786544    0.8892939708
C       -0.7309605422    0.4670977844    1.9534269582
C       -0.8886675783    0.9585193652   -0.4079758737
C        5.6274698912    1.2245430494   -0.8277637250
C        0.4282221942   -0.2815938622    1.7183203077
C        0.2705476144    0.2090763846   -0.6375329557
C        5.3444617676    0.0817797851   -1.5668219371
C        4.8311092539    1.5415940604    0.2657062637
C        0.9367403781   -0.4283160278    0.4227237435
C        3.4308166150   -0.4093865093   -0.1413538925
C        4.2715069218   -0.7493705357   -1.2335838764
C        3.7417599019    0.7426649458    0.6189770132
C        2.2006859716   -1.1926485338    0.1667090963
C        3.8312837434   -3.1212431614   -1.4766309336
C        3.3800950839   -3.2848888298   -0.0245682092
N        2.1621536612   -2.5007879361    0.2705528075
N        4.0823492351   -1.8858076728   -2.0227716387
O        4.0180395499   -4.0901703730   -2.1957427154
F        3.0205465789    1.0968929334    1.7064062139
H       -2.2901848792    1.6662964428    1.0698187463
H       -1.1153221530    0.5659182834    2.9622006578
H       -1.3955291889    1.4397112173   -1.2367089271
H        6.4661274998    1.8579846086   -1.0975004368
H        0.9371390672   -0.7580791721    2.5491850376
H        0.6582332618    0.1178484421   -1.6463834094
H        5.9781050221   -0.1669354537   -2.4103403644
H        5.0489250540    2.4225998099    0.8576809941
H        3.1761411060   -4.3449151846    0.1505229381
H        4.1958545588   -2.9913652299    0.6419640533
H        4.5098128277   -1.9500422415   -2.9377095658
30   

C       -1.2749172735    0.7195762506    0.6763969367
C       -0.4807090963    0.4407226578    1.7910274900
C       -0.8366928909    0.3437831525   -0.5949560583
C        5.8629402001    1.3333159299   -0.7000652091
C        0.7486887373   -0.2099599020    1.6321441983
C        0.3933071516   -0.3055743679   -0.7464269111
C        5.5994203181    0.2441961470   -1.5210353676
C        5.0835581766    1.5337790910    0.4315784769
C        1.2052906993   -0.5911517019    0.3652192855
C        3.7296417080   -0.4215961943   -0.1028574088
C        4.5609081607   -0.6454843436   -1.2335428276
C        4.0275495844    0.6743619484    0.7422025752
C        2.5272318271   -1.2719643713    0.1447278193
C        4.2256311154   -3.0085348004   -1.6420399003
C        3.7892461185   -3.2941870627   -0.2044859276
N        2.5376968702   -2.5846372591    0.1340294644
N        4.3994504483   -1.7260516234   -2.1034190064
O        4.4562693621   -3.9142212953   -2.4277866709
F        3.3335549533    0.9184130377    1.8739184013
H       -2.2284632183    1.2210981272    0.7978634907
H       -0.8185073960    0.7235451974    2.7815121609
H       -1.4493085035    0.5528376771   -1.4646073519
H        6.6746662991    2.0138583453   -0.9352456569
H        1.3423306998   -0.4372392767    2.5104426839
H        0.7251297722   -0.5954740398   -1.7376562457
H        6.2221665307    0.0834203935   -2.3935178602
H        5.2893010405    2.3702917677    1.0888252650
H        3.6313796028   -4.3715891476   -0.1036276555
H        4.5920046533   -3.0105021100    0.4818088342
H        4.8163815890   -1.7047163321   -3.0251828452
30   

C       -1.3051612293    0.6953299997    0.5625809017
C       -0.4303057897    0.7247488328    1.6494539231
C       -0.9341120149    0.0198657475   -0.5996822691
C        5.9230808835    1.3024173386   -0.5798965595
C        0.8148485308    0.0883425282    1.5708807315
C        0.3112416086   -0.6123690527   -0.6717403688
C        5.5590143268    0.3103056135   -1.4807244536
C        5.2456551002    1.4014520524    0.6281010246
C        1.2153879045   -0.5823349093    0.4074991836
C        3.7654880521   -0.4308156642    0.0001048458
C        4.5119771511   -0.5713174867   -1.2010169099
C        4.1846278341    0.5459018849    0.9340781089
C        2.5418808964   -1.2651962186    0.2249849833
C        4.1328262821   -2.8918803182   -1.7479464843
C        3.7603263840   -3.2714686888   -0.3124294322
N        2.5287145533   -2.5739395268    0.1134393219
N        4.2694075845   -1.5797057450   -2.1362033951
O        4.3268439942   -3.7442784308   -2.6004000596
F        3.6198624296    0.6665329229    2.1514672113
H       -2.2706353038    1.1848091372    0.6244529574
H       -0.7210833029    1.2309859376    2.5629284495
H       -1.6100846010   -0.0179149875   -1.4464254638
H        6.7400597418    1.9787286968   -0.8090459331
H        1.4303381718    0.0886771773    2.4587707285
H        0.5872100868   -1.1362424219   -1.5809639096
H        6.1125151733    0.2151430912   -2.4077988118
H        5.5406996779    2.1511302339    1.3526511331
H        3.5958451620   -4.3519329283   -0.2748278806
H        4.5930166070   -3.0368092286    0.3566227485
H        4.6342085390   -1.4980927089   -3.0764900433
30   

C       -1.3625089249    0.6233422442    0.5240598137
C       -0.3881175808    0.9395206295    1.4703368307
C       -1.0663488446   -0.2914055359   -0.4843305736
C        5.9468422213    1.3164323609   -0.4267224066
C        0.8805870571    0.3491092431    1.4055235977
C        0.2015117487   -0.8777169750   -0.5442844603
C        5.5133828889    0.4476389022   -1.4217473538
C        5.3468353438    1.2665825349    0.8267374868
C        1.2103537855   -0.5631871582    0.3913634498
C        3.7753018618   -0.4187882330    0.0482782042
C        4.4619223324   -0.4423221942   -1.1911358431
C        4.2842844682    0.3958270874    1.0824581966
C        2.5378759208   -1.2458880739    0.2399356253
C        4.0633446796   -2.7106972500   -1.8922528581
C        3.7487706794   -3.1995614254   -0.4722570758
N        2.5262811011   -2.5458535989    0.0429013680
N        4.1712918910   -1.3707202974   -2.1925704164
O        4.2301328817   -3.4983961385   -2.8102367289
F        3.8123721732    0.3195772072    2.3448001724
H       -2.3445889266    1.0798812087    0.5757396736
H       -0.6164606943    1.6415533486    2.2642726659
H       -1.8176881156   -0.5514618456   -1.2213778748
H        6.7668218910    2.0011558040   -0.6168993417
H        1.5747777430    0.6201617302    2.1833148035
H        0.4101446774   -1.5907014190   -1.3353612855
H        6.0202598872    0.4488322036   -2.3798411983
H        5.7099853527    1.9023590923    1.6253860018
H        3.5939149841   -4.2815464359   -0.5068899194
H        4.6031091499   -3.0056806357    0.1825787269
H        4.4988628447   -1.2184201728   -3.1377161720
30   

C       -1.3953840467    0.5925439898    0.5638237529
C       -0.3302352745    1.1088880115    1.2999667547
C       -1.1811346844   -0.4974080685   -0.2763564852
C        5.9682367310    1.3169304949   -0.2931119744
C        0.9455428988    0.5403426082    1.1948234301
C        0.0938543729   -1.0624114112   -0.3772738387
C        5.5344094269    0.5144055843   -1.3435632191
C        5.3546231575    1.2007044458    0.9505768916
C        1.1951930337   -0.5529891977    0.3490428314
C        3.7675022691   -0.4052246380    0.0524995867
C        4.4685576932   -0.3724481062   -1.1760301784
C        4.2765556331    0.3322964638    1.1412332814
C        2.5225424563   -1.2307163947    0.1990942365
C        4.0686037603   -2.6046111734   -1.9747992785
C        3.7524362072   -3.1510448589   -0.5747126823
N        2.5242452514   -2.5254250234   -0.0369213324
N        4.1827791736   -1.2533610942   -2.2201465687
O        4.2368903476   -3.3552799729   -2.9230887500
F        3.7789201183    0.1807463799    2.3896761697
H       -2.3825248199    1.0335998833    0.6451177796
H       -0.4908707973    1.9559769252    1.9572008450
H       -2.0019191208   -0.9105718048   -0.8516898066
H        6.8004193581    1.9989145996   -0.4337455801
H        1.7216074628    0.9975604012    1.7868067615
H        0.2275002159   -1.9128751850   -1.0378661761
H        6.0538989302    0.5616286846   -2.2937170139
H        5.7191490032    1.7804811027    1.7901746627
H        3.6042134112   -4.2317049468   -0.6524562470
H        4.6038622878   -2.9790513012    0.0899756033
H        4.5168879779   -1.0619795384   -3.1558355498
30   

C       -1.4013460041    0.6020698636    0.6177994061
C       -0.2712514613    1.2484955852    1.1151512936
C       -1.2580971221   -0.6192115927   -0.0359370556
C        5.9829392640    1.3016239771   -0.1745743208
C        0.9979020472    0.6771238559    0.9595581623
C        0.0105147099   -1.1873410866   -0.1882292479
C        5.5796048856    0.5336741172   -1.2628597482
C        5.3173629417    1.1646530677    1.0401716539
C        1.1767213221   -0.5509647835    0.3009932529
C        3.7504551548   -0.3999427001    0.0392127777
C        4.4971496578   -0.3432090410   -1.1608125350
C        4.2208436210    0.3077771779    1.1644246157
C        2.5016625607   -1.2251632483    0.1332735185
C        4.1046175823   -2.5465403356   -2.0356939770
C        3.7521176820   -3.1282378194   -0.6588441171
N        2.5127350749   -2.5148090657   -0.1321466188
N        4.2388702715   -1.1905113534   -2.2388225354
O        4.2928098601   -3.2722648205   -2.9995576110
F        3.6488381902    0.1502397229    2.3812430794
H       -2.3835153926    1.0454657656    0.7375041327
H       -0.3756424551    2.2009419801    1.6223543530
H       -2.1295588584   -1.1324432104   -0.4265157913
H        6.8291170959    1.9749402040   -0.2643956202
H        1.8282619075    1.2454603757    1.3499595583
H        0.0807261505   -2.1413338719   -0.7002585635
H        6.1360169713    0.5992848234   -2.1907745068
H        5.6523779558    1.7211212776    1.9074275634
H        3.6040526785   -4.2060786581   -0.7690385750
H        4.5876413135   -2.9766135562    0.0304969613
H        4.6018507715   -0.9749333476   -3.1583576695
30   

C       -1.3883054299    0.6303816974    0.6684342597
C       -0.2218460139    1.3520085065    0.9164630170
C       -1.2969222164   -0.6830131449    0.2135500023
C        5.9871164392    1.2652445343   -0.0644505623
C        1.0321794345    0.7632588111    0.7118254896
C       -0.0433015953   -1.2687769294    0.0110985033
C        5.6288852278    0.5164345783   -1.1815424518
C        5.2559186481    1.1277191586    1.1116156196
C        1.1572832009   -0.5583686788    0.2527167738
C        3.7284524726   -0.4144806634    0.0166424526
C        4.5319507270   -0.3479800428   -1.1462783650
C        4.1434907674    0.2849391199    1.1693195394
C        2.4754256581   -1.2336682763    0.0526186938
C        4.1432381476   -2.5223290327   -2.0948393561
C        3.7323961324   -3.1320833097   -0.7477993604
N        2.4839596312   -2.5162821062   -0.2460087356
N        4.3106682253   -1.1650822229   -2.2551505874
O        4.3575593419   -3.2261346310   -3.0694412339
F        3.4859946371    0.1475786506    2.3448119154
H       -2.3589214341    1.0871245001    0.8261505931
H       -0.2865278366    2.3762979190    1.2656485735
H       -2.1972695382   -1.2541270092    0.0171047043
H        6.8452121464    1.9283060553   -0.1030100785
H        1.8928856301    1.3894690586    0.8988861923
H       -0.0149180118   -2.2950594389   -0.3395322881
H        6.2308089499    0.5885059597   -2.0801230156
H        5.5480804447    1.6759655769    1.9994095794
H        3.5745251817   -4.2046225869   -0.8910530849
H        4.5450275088   -3.0100410873   -0.0260194675
H        4.7143404909   -0.9317746274   -3.1531534986
30   

C       -1.3666754659    0.6558655201    0.7264520959
C       -0.1966051018    1.4144006965    0.7282205294
C       -1.2970179195   -0.7120772513    0.4692624700
C        5.9774101413    1.2272845047    0.0311075720
C        1.0397534285    0.8075293991    0.4757963760
C       -0.0606965153   -1.3159278954    0.2182129361
C        5.6694266026    0.4891365282   -1.1077300283
C        5.1817347089    1.0958375419    1.1648332766
C        1.1405478513   -0.5688355882    0.2159807932
C        3.7055330177   -0.4373717280   -0.0122069439
C        4.5638132576   -0.3647567028   -1.1360101387
C        4.0597434498    0.2642999597    1.1603424759
C        2.4475223083   -1.2448981690   -0.0352086912
C        4.1704814974   -2.5062135750   -2.1634553516
C        3.6947347130   -3.1441375230   -0.8530101891
N        2.4432282982   -2.5174969385   -0.3735288022
N        4.3811215678   -1.1509839990   -2.2739576005
O        4.4066297957   -3.1859349908   -3.1500155078
F        3.3293372236    0.1457699480    2.2938345555
H       -2.3240178964    1.1262213275    0.9209569082
H       -0.2455320553    2.4800116628    0.9214090995
H       -2.2007815526   -1.3108618357    0.4642286390
H        6.8428556298    1.8817963383    0.0410448910
H        1.9088944264    1.4523310891    0.4651589837
H       -0.0443421097   -2.3835744383    0.0261719041
H        6.3155495303    0.5642407511   -1.9748278534
H        5.4284342044    1.6419975012    2.0676124412
H        3.5193112210   -4.2080823946   -1.0347825099
H        4.4830554471   -3.0626966888   -0.0992969876
H        4.8270607478   -0.9016413024   -3.1473337441
30   

C       -1.3429743431    0.6747019698    0.7788438842
C       -0.2022164620    1.4436071479    0.5455430507
C       -1.2602965384   -0.7161632292    0.7161044447
C        5.9605389131    1.1976761981    0.1148703142
C        1.0184729035    0.8235883441    0.2530448900
C       -0.0392795338   -1.3331217183    0.4242619705
C        5.6995578412    0.4684049235   -1.0410560099
C        5.1088830548    1.0719600861    1.2073481519
C        1.1291328790   -0.5746078033    0.1911146548
C        3.6845206585   -0.4559019296   -0.0397823521
C        4.5897519303   -0.3764184730   -1.1268093992
C        3.9819066972    0.2497284710    1.1470054806
C        2.4217998663   -1.2480046602   -0.1205837588
C        4.1846864331   -2.4796944396   -2.2377649403
C        3.6486950436   -3.1475974966   -0.9678256035
N        2.3993835036   -2.5080184224   -0.5008541382
N        4.4420520998   -1.1299933250   -2.2919319946
O        4.4346835282   -3.1314684406   -3.2396223731
F        3.1942199901    0.1433539508    2.2425923273
H       -2.2887789099    1.1545951944    1.0040252720
H       -0.2627907904    2.5252037835    0.5864822643
H       -2.1421461940   -1.3215648615    0.8925829625
H        6.8297524539    1.8450098428    0.1687056877
H        1.8735546964    1.4601679375    0.0585674498
H       -0.0039650482   -2.4166992703    0.3822248459
H        6.3835518413    0.5470978484   -1.8782783023
H        5.3141758575    1.6162898615    2.1215320024
H        3.4527898752   -4.1996631603   -1.1927587476
H        4.4146464224   -3.1136046286   -0.1879218912
H        4.9254155458   -0.8643403837   -3.1402509780
30   

C       -1.3258188497    0.6897532988    0.8275279993
C       -0.2425821051    1.4405038577    0.3661334127
C       -1.1988096950   -0.6934571410    0.9663570081
C        5.9463826841    1.1518969416    0.2131721598
C        0.9659650511    0.8097103227    0.0480803237
C        0.0102744967   -1.3213091389    0.6483071998
C        5.7239193436    0.4295148440   -0.9547458510
C        5.0471694592    1.0369087003    1.2675363372
C        1.1181926578   -0.5779453543    0.1932471059
C        3.6627337429   -0.4808333631   -0.0367872791
C        4.6087213762   -0.4018729744   -1.0896223062
C        3.9141332649    0.2282139542    1.1594328183
C        2.3944551000   -1.2527502402   -0.1713677642
C        4.1865382949   -2.4686313895   -2.2722606408
C        3.5941555267   -3.1580666831   -1.0407632667
N        2.3504091088   -2.5011039220   -0.5840934270
N        4.4905332479   -1.1281932539   -2.2756282868
O        4.4459792152   -3.0965847953   -3.2868099065
F        3.0802259500    0.1367987981    2.2216381013
H       -2.2627949091    1.1773229671    1.0722367977
H       -0.3394756432    2.5139143026    0.2496304098
H       -2.0374976907   -1.2837456403    1.3176779609
H        6.8199858104    1.7889926149    0.3046700289
H        1.7851464241    1.4159629698   -0.3224204950
H        0.0888487728   -2.3980525379    0.7563075139
H        6.4404175840    0.5064741483   -1.7644828575
H        5.2187320502    1.5799379801    2.1894052002
H        3.3764598626   -4.1967904406   -1.3044028900
H        4.3385515865   -3.1703026101   -0.2396773149
H        5.0080328105   -0.8527294214   -3.1003818599
30   

C       -1.3046329347    0.6989603348    0.8457333080
C       -0.3092787663    1.4099367789    0.1702008026
C       -1.0972394192   -0.6433393670    1.1725698291
C        5.9614732613    1.1062704738    0.2981798021
C        0.8932033564    0.7807096556   -0.1727417035
C        0.1057531587   -1.2697546841    0.8289734685
C        5.7649611156    0.4110741801   -0.8903530096
C        5.0254037493    0.9884173059    1.3191245551
C        1.1242359914   -0.5607883036    0.1655193635
C        3.6625071069   -0.4870004501   -0.0558214265
C        4.6411742041   -0.3982351162   -1.0784190449
C        3.8834516332    0.2011599391    1.1593806244
C        2.3878584588   -1.2329274708   -0.2481526963
C        4.2005237690   -2.4127236030   -2.3492410709
C        3.5593127404   -3.1334652118   -1.1618024470
N        2.3227951166   -2.4643635505   -0.7038324227
N        4.5443203819   -1.0836138477   -2.2907568619
O        4.4674124690   -3.0066833670   -3.3821259814
F        3.0153280966    0.1091608006    2.1937211647
H       -2.2372972803    1.1847198058    1.1097215151
H       -0.4707025728    2.4490640816   -0.0930931962
H       -1.8696281700   -1.2029321103    1.6878250507
H        6.8417093494    1.7268126816    0.4305445965
H        1.6502888348    1.3434265571   -0.7081068255
H        0.2526271994   -2.3160370044    1.0754768012
H        6.5073314333    0.4943561220   -1.6757739949
H        5.1741373023    1.5130830905    2.2554634582
H        3.3211012401   -4.1544524124   -1.4728009118
H        4.2840106120   -3.1986718434   -0.3453998499
H        5.0913878046   -0.7917864507   -3.0904439881
30   

C       -1.3150898728    0.7057048375    0.8560805180
C       -0.4309264422    1.3345403737   -0.0254430768
C       -0.9981886035   -0.5512242153    1.3786947393
C        5.9757530963    1.0336769771    0.4057142668
C        0.7711076543    0.7097294566   -0.3780236384
C        0.2041417955   -1.1732931160    1.0246651423
C        5.7914925419    0.3727485481   -0.8038405315
C        5.0139895089    0.9117912498    1.4016350774
C        1.1110176950   -0.5398070123    0.1575497092
C        3.6531758908   -0.5034982204   -0.0379993061
C        4.6554690543   -0.4071121808   -1.0374665867
C        3.8597385250    0.1531814295    1.1975257351
C        2.3687059663   -1.2163693691   -0.2797109710
C        4.1913361395   -2.3670103898   -2.3868407239
C        3.5085567015   -3.1124899505   -1.2390893196
N        2.2813702238   -2.4288238091   -0.7781080184
N        4.5695794474   -1.0511120667   -2.2733180717
O        4.4619407163   -2.9298615757   -3.4360291509
F        2.9683923277    0.0574812498    2.2113550234
H       -2.2476220313    1.1875025243    1.1276756991
H       -0.6791136328    2.3045663761   -0.4409378677
H       -1.6858781996   -1.0485631946    2.0531667827
H        6.8652584501    1.6321443982    0.5730249925
H        1.4443047263    1.2003684233   -1.0726897171
H        0.4385340892   -2.1561966868    1.4191453922
H        6.5523256727    0.4611704332   -1.5707950753
H        5.1515771982    1.4115509654    2.3531569449
H        3.2499379422   -4.1147917860   -1.5918134213
H        4.2156960110   -3.2267628245   -0.4127726623
H        5.1405717793   -0.7461989405   -3.0511086440
30   

C       -1.3380820565    0.7475585391    0.8333240810
C       -0.5734163117    1.2320260824   -0.2323596180
C       -0.9009375930   -0.3694989071    1.5512487119
C        5.9911151838    0.9683624591    0.5318684997
C        0.6306379848    0.6048018914   -0.5737384607
C        0.3028271081   -0.9947172299    1.2075533480
C        5.8052676066    0.3605434409   -0.7046402002
C        5.0193894609    0.8227413056    1.5144655562
C        1.0910485077   -0.4983622295    0.1556522339
C        3.6456737061   -0.5101658929    0.0090855299
C        4.6580371667   -0.3892653849   -0.9783584184
C        3.8538601208    0.0933530559    1.2712673908
C        2.3503728990   -1.1873814446   -0.2767086218
C        4.1722138521   -2.2801348315   -2.4165333873
C        3.4607073222   -3.0606911915   -1.3106841046
N        2.2426274974   -2.3703711164   -0.8363034855
N        4.5718735600   -0.9774292049   -2.2418926460
O        4.4438304622   -2.8014248453   -3.4867229951
F        2.9551129084   -0.0262793685    2.2750694089
H       -2.2719679267    1.2312066758    1.0968673070
H       -0.9163326130    2.0903117901   -0.7988958968
H       -1.4968250262   -0.7565937626    2.3699245589
H        6.8889472045    1.5446273591    0.7297757823
H        1.2109308399    0.9777419644   -1.4107739511
H        0.6309903867   -1.8717470719    1.7547294178
H        6.5732258760    0.4678735086   -1.4620049350
H        5.1576406919    1.2816591732    2.4862323390
H        3.1853939027   -4.0408203028   -1.7100137656
H        4.1547974606   -3.2255443081   -0.4818719348
H        5.1561358922   -0.6493654976   -3.0001606355
30   

C       -1.3592837396    0.7318281782    0.7412167006
C       -0.7068330255    0.9998997689   -0.4659974734
C       -0.8052418791   -0.1813208188    1.6432703532
C        6.0146301704    0.8814941771    0.6285561912
C        0.5047877718    0.3655113329   -0.7641132626
C        0.4053321290   -0.8158824685    1.3427803930
C        5.8049790739    0.3500781260   -0.6381855900
C        5.0630962562    0.6724413505    1.6186493051
C        1.0873620597   -0.5235980986    0.1491803092
C        3.6572194063   -0.5665734835    0.0614889492
C        4.6532724057   -0.3838355626   -0.9346528856
C        3.8929819680   -0.0423779378    1.3542806857
C        2.3549684202   -1.2225114471   -0.2563019269
C        4.1617313979   -2.1933387473   -2.4691870358
C        3.4562562795   -3.0332228919   -1.4038329577
N        2.2406256809   -2.3635777021   -0.8955477511
N        4.5483755743   -0.8970925082   -2.2291687064
O        4.4305495279   -2.6553703212   -3.5669669548
F        3.0214639389   -0.2253688458    2.3700711152
H       -2.2983179652    1.2220974109    0.9722644563
H       -1.1425821245    1.6946754872   -1.1749745809
H       -1.3169174019   -0.4050070720    2.5724221146
H        6.9154446434    1.4468000745    0.8437504290
H        0.9968043320    0.5658101759   -1.7098795557
H        0.8150293760   -1.5431783791    2.0349200426
H        6.5579894136    0.5049072888   -1.4023099094
H        5.2211190004    1.0701165076    2.6141006774
H        3.1785341517   -3.9905470172   -1.8536065576
H        4.1523899765   -3.2406759199   -0.5863816071
H        5.1221316124   -0.5236833618   -2.9743605728
30   

C       -1.3743743616    0.7201762189    0.6212145926
C       -0.8269817566    0.7176001224   -0.6641960701
C       -0.7135103406    0.0563803267    1.6581146898
C        6.0545229306    0.7935955204    0.6739234794
C        0.3906604434    0.0718642845   -0.9058593123
C        0.5029540486   -0.5923684005    1.4155291269
C        5.7823689144    0.3795632529   -0.6233673048
C        5.1635823965    0.4708193308    1.6887208488
C        1.0926369648   -0.5527874913    0.1381022851
C        3.6785600564   -0.6269425460    0.0971031487
C        4.6244266023   -0.3417356382   -0.9250507172
C        3.9881746816   -0.2346693771    1.4209643528
C        2.3643464633   -1.2594825517   -0.2413071938
C        4.1225819413   -2.0491007210   -2.5602320056
C        3.4617458271   -2.9719545146   -1.5345142559
N        2.2481124451   -2.3499953953   -0.9647123398
N        4.4683867031   -0.7556920826   -2.2495937407
O        4.3757731000   -2.4333235396   -3.6912320987
F        3.1949680821   -0.5433520120    2.4662303310
H       -2.3176096712    1.2205393126    0.8096398195
H       -1.3480044358    1.2110335016   -1.4768034225
H       -1.1510051407    0.0305478724    2.6496698704
H        6.9594265850    1.3505794074    0.8936424742
H        0.7993196352    0.0621569592   -1.9109261966
H        0.9566986850   -1.1507900371    2.2236202906
H        6.4926844238    0.6136666870   -1.4079358200
H        5.3757253532    0.7686150832    2.7087011957
H        3.1883093492   -3.9033557454   -2.0380898132
H        4.1799662600   -3.2167811382   -0.7470060978
H        5.0059827424   -0.3170755868   -2.9861487707
30   

C       -1.3457799377    0.7960250028    0.5082822352
C       -0.9576197084    0.4088690842   -0.7749736923
C       -0.5347625164    0.4817739472    1.6001697397
C        6.0158710135    0.6980364703    0.7981090537
C        0.2400330362   -0.2886128289   -0.9646328797
C        0.6642560101   -0.2163798303    1.4124874407
C        5.6760261727    0.4816798667   -0.5326810047
C        5.2211507902    0.1509174307    1.7997066022
C        1.0719711900   -0.6146682061    0.1226275039
C        3.6612515128   -0.7072596182    0.1432063242
C        4.5313102399   -0.2423404408   -0.8736555004
C        4.0626629440   -0.5657535165    1.4884966874
C        2.3452140741   -1.3322541737   -0.2156694625
C        4.0592068113   -1.8165792168   -2.6328584708
C        3.4896709012   -2.8690339680   -1.6722102069
N        2.2593781110   -2.3676770240   -1.0221634936
N        4.3262704057   -0.5284180889   -2.2246201504
O        4.2973456133   -2.0874787325   -3.7994218828
F        3.3865046615   -1.1568020173    2.4964912411
H       -2.2742329587    1.3360168823    0.6565538852
H       -1.5839601359    0.6481059369   -1.6269077946
H       -0.8365081471    0.7767872100    2.5988115886
H        6.9096385595    1.2591366359    1.0505429486
H        0.5238715638   -0.5773507107   -1.9715474166
H        1.2383363274   -0.4437213692    2.2957671879
H        6.3271464701    0.8617149479   -1.3114480140
H        5.5031922606    0.2697108753    2.8390677044
H        3.2544783701   -3.7687525084   -2.2475900332
H        4.2452997617   -3.1369884686   -0.9282465889
H        4.8088415916    0.0044115454   -2.9366848582
30   

C       -1.3582636443    0.8061164796    0.4889509557
C       -1.1130410760    0.1681755124   -0.7270749543
C       -0.3953808497    0.7619085677    1.4977192842
C        6.0116309346    0.6151560102    0.9010925913
C        0.0869787650   -0.5221218164   -0.9290982367
C        0.8067839314    0.0733051651    1.2972191060
C        5.6853279274    0.4838866200   -0.4452279198
C        5.1986966985    0.0181834328    1.8602519555
C        1.0590044750   -0.6080423121    0.0866607032
C        3.6489236996   -0.7110058632    0.1371393470
C        4.5360644549   -0.2040319042   -0.8410708060
C        4.0347398604   -0.6617201546    1.4921734440
C        2.3335954269   -1.3137094197   -0.2598973565
C        4.0788836716   -1.6964600477   -2.6696955807
C        3.5100353637   -2.7916064060   -1.7552702550
N        2.2687958903   -2.3284542696   -1.0962623721
N        4.3453788591   -0.4267302946   -2.2054296383
O        4.3231338589   -1.9182640296   -3.8453712173
F        3.3257697032   -1.3032872988    2.4492230564
H       -2.2887004279    1.3401946367    0.6459913147
H       -1.8517304535    0.2089190791   -1.5195660297
H       -0.5766419786    1.2685196982    2.4389156433
H        6.9099260551    1.1473679436    1.1964307931
H        0.2499312695   -0.9957030026   -1.8917539365
H        1.5206117103    0.0984949385    2.1053096433
H        6.3515827245    0.8982366127   -1.1930965180
H        5.4705165716    0.0688491353    2.9078688584
H        3.2886321875   -3.6700760597   -2.3677357661
H        4.2616288149   -3.0826249786   -1.0158936583
H        4.8346398581    0.1363933354   -2.8890247967
30   

C       -1.3836888293    0.7697880523    0.5317955254
C       -1.2454929490   -0.0564410983   -0.5830949356
C       -0.3050225049    0.9429276252    1.3986906178
C        6.0134946067    0.5398608621    0.9952448646
C       -0.0368606442   -0.7195874896   -0.8227335962
C        0.9053281832    0.2819213004    1.1601751159
C        5.7267372643    0.4464563372   -0.3634648445
C        5.1503682248   -0.0470417331    1.9160711924
C        1.0542852004   -0.5929591113    0.0599327243
C        3.6412978568   -0.7031096428    0.1279889030
C        4.5717431314   -0.1993474533   -0.8108607831
C        3.9791767995   -0.6827707352    1.4966308290
C        2.3300522376   -1.2797451729   -0.3125517803
C        4.1329486368   -1.6317040604   -2.6897797912
C        3.5281955371   -2.7392131227   -1.8149845039
N        2.2782586188   -2.2775961273   -1.1711259863
N        4.4159191667   -0.3817325565   -2.1851771769
O        4.3999351941   -1.8282509594   -3.8650282497
F        3.1996963022   -1.2942475421    2.4193033772
H       -2.3206155328    1.2830882162    0.7170010678
H       -2.0748843278   -0.1831908396   -1.2696913716
H       -0.4016992693    1.5997382715    2.2557778190
H        6.9172612098    1.0383863613    1.3300828863
H        0.0303901468   -1.3401562156   -1.7101258899
H        1.7139513939    0.4878486526    1.8457438612
H        6.4280985184    0.8571436726   -1.0806466402
H        5.3855249698   -0.0197311651    2.9734259201
H        3.3098962484   -3.5997843025   -2.4533958338
H        4.2591535135   -3.0581065747   -1.0665097448
H        4.9336741308    0.1893220606   -2.8406272000
30   

C       -1.3959364609    0.7308932600    0.5957829269
C       -1.3379368581   -0.2479746364   -0.3956908203
C       -0.2357910775    1.0821016414    1.2850094001
C        6.0054972143    0.4600392395    1.0702670884
C       -0.1262386659   -0.8839998042   -0.6885068288
C        0.9769444697    0.4480015580    0.9929684809
C        5.7684875390    0.3927554743   -0.2994977774
C        5.0854194330   -0.1021574593    1.9499716401
C        1.0523946150   -0.5748946119    0.0188859514
C        3.6319643123   -0.6998571357    0.0949870440
C        4.6115399461   -0.2088962205   -0.8008861322
C        3.9111388850   -0.6928472211    1.4777068218
C        2.3251406760   -1.2411842249   -0.3933222778
C        4.1878535461   -1.5711520242   -2.7363981554
C        3.5281727241   -2.6843157717   -1.9122795312
N        2.2747767684   -2.2100986881   -1.2848718523
N        4.4983252370   -0.3492008727   -2.1841569382
O        4.4826538570   -1.7406887577   -3.9092065123
F        3.0601349726   -1.2593829122    2.3651798875
H       -2.3351179341    1.2235348032    0.8212590042
H       -2.2331121138   -0.5152919024   -0.9457389738
H       -0.2715527339    1.8564976061    2.0428675862
H        6.9114564345    0.9241373727    1.4461836609
H       -0.1286518725   -1.6295122883   -1.4765720724
H        1.8500128080    0.7906411575    1.5311087373
H        6.5092236009    0.7914666489   -0.9830850444
H        5.2753326190   -0.0871798036    3.0166627276
H        3.3037915530   -3.5189364228   -2.5822438082
H        4.2300725209   -3.0461126678   -1.1555832173
H        5.0534783488    0.2243294066   -2.8059789320
30   

C       -1.3921573369    0.6951801567    0.6659555110
C       -1.3800389632   -0.4103955774   -0.1848335914
C       -0.1886338489    1.1980902769    1.1601927163
C        5.9903133835    0.3835188280    1.1511297699
C       -0.1686602618   -1.0188420997   -0.5330618207
C        1.0232108402    0.5912566626    0.8125741311
C        5.8114165466    0.3296506381   -0.2278511292
C        5.0107866958   -0.1430158494    1.9869928678
C        1.0564389666   -0.5485410046   -0.0233314457
C        3.6261316705   -0.6973844874    0.0657491627
C        4.6576979598   -0.2288468911   -0.7841514090
C        3.8387604994   -0.6908229960    1.4612232741
C        2.3243245580   -1.1945799769   -0.4736934371
C        4.2491096805   -1.5203843167   -2.7753720934
C        3.5208105076   -2.6291596953   -2.0080181372
N        2.2680659007   -2.1301732365   -1.3995551473
N        4.5946624661   -0.3326048961   -2.1739696121
O        4.5751475785   -1.6660662414   -3.9430940265
F        2.9232362551   -1.2123933169    2.3109449000
H       -2.3312225128    1.1664039251    0.9336929865
H       -2.3112601975   -0.7984568573   -0.5817554564
H       -0.1914829648    2.0672494400    1.8081355860
H        6.8944342078    0.8142449815    1.5688755470
H       -0.2046645783   -1.8703425729   -1.2042860142
H        1.9330444903    1.0388722536    1.1922654220
H        6.5936630195    0.7086274467   -0.8754939327
H        5.1504506375   -0.1317696742    3.0614841111
H        3.2853991877   -3.4329432976   -2.7110923095
H        4.1854343209   -3.0419861236   -1.2438546962
H        5.1931399169    0.2355585461   -2.7594826676
