29   

C        1.8051220950    4.7066096489   -3.2802509359
C        1.9096615792    5.2524713145   -1.9990987625
C        1.1981868332    3.4612495216   -3.4547636292
C        1.4218091310    4.5473492974   -0.8928424842
C        0.7108758939    2.7569248922   -2.3481322268
C        0.8485549361    3.2749993255   -1.0405837177
C        0.2759675730    2.6257793909    0.1917838203
C       -0.6919812998   -1.5255706741   -0.0005334859
C        0.2354429892   -0.8698681080   -1.0321673729
C       -1.6710174866   -0.4827446702    0.5525886853
C        0.9697188196    0.3191611303   -0.4044037016
C       -0.9171521399    0.7123828690    1.1428515848
N       -0.0019222566    1.2700659541    0.1449486554
O       -0.0859387933    3.3083949078    1.1443469527
H        2.1786889168    5.2556648867   -4.1374144264
H        2.3610587288    6.2284112566   -1.8600493420
H        1.0895820372    3.0474578060   -4.4510164382
H        1.4934006122    4.9961229845    0.0931339395
H        0.1973777922    1.8186585141   -2.5206463470
H       -0.0945175865   -1.9376891105    0.8198951991
H       -1.2453344384   -2.3491883343   -0.4629190579
H       -0.3564526626   -0.5247061993   -1.8860010332
H        0.9616500817   -1.6025996879   -1.3974796062
H       -2.3062273415   -0.9339892027    1.3212397706
H       -2.3190822456   -0.1310845249   -0.2567534360
H        1.6386088484    0.7716245725   -1.1402211931
H        1.6067500720   -0.0439152383    0.4093676143
H       -1.6476897709    1.4606480977    1.4695511700
H       -0.3473247290    0.3961147737    2.0231834932
29   

C        1.8785084757    4.6475286669   -3.2837345317
C        2.0457693558    5.1570742997   -1.9934323413
C        1.1336026353    3.4817470696   -3.4782387768
C        1.4788441244    4.4951837114   -0.8980696840
C        0.5677955152    2.8210293677   -2.3822096785
C        0.7577989427    3.3052174171   -1.0702888146
C        0.1226482582    2.6820841782    0.1431417382
C       -0.6061606210   -1.5052701368   -0.0002298224
C        0.2652285912   -0.8015332669   -1.0491302786
C       -1.6089877919   -0.5085638930    0.5939227701
C        0.9714332664    0.4083329247   -0.4293109501
C       -0.8855935707    0.7065819730    1.1815933466
N       -0.0206725747    1.3103150615    0.1654569471
O       -0.3378685655    3.3865271583    1.0344786884
H        2.3137310165    5.1634282551   -4.1323730815
H        2.6077417230    6.0714236277   -1.8394750410
H        0.9829316619    3.0962880300   -4.4803701376
H        1.5977041731    4.9105076891    0.0978564984
H       -0.0388052549    1.9392289076   -2.5549294530
H        0.0298650181   -1.9036707416    0.7976480985
H       -1.1401427358   -2.3441831066   -0.4578898372
H       -0.3640358993   -0.4696231925   -1.8811981359
H        1.0081973841   -1.5010044247   -1.4446992932
H       -2.2056560055   -0.9944208444    1.3722811521
H       -2.2918088454   -0.1712224793   -0.1927048636
H        1.5967566281    0.8932686747   -1.1821712895
H        1.6494803969    0.0623558973    0.3582639868
H       -1.6363650535    1.4186168917    1.5413650861
H       -0.2792512381    0.4007757567    2.0408096310
29   

C        1.9172417666    4.5730241497   -3.2657272565
C        2.1254319757    5.0364167520   -1.9633479027
C        1.0663841059    3.4870281361   -3.4895601736
C        1.4897237337    4.4093908162   -0.8852766184
C        0.4321387171    2.8611189169   -2.4107180855
C        0.6528598945    3.3047590175   -1.0913114293
C       -0.0369390100    2.6934606582    0.0982890449
C       -0.5404261024   -1.5007786089    0.0025940663
C        0.2877762300   -0.7544775715   -1.0523564197
C       -1.5560377252   -0.5437350650    0.6396244429
C        0.9740737935    0.4646212060   -0.4284130037
C       -0.8519471430    0.6791392845    1.2351653888
N       -0.0318494650    1.3230502510    0.2065025505
O       -0.6073328895    3.4035325152    0.9178421813
H        2.4061336792    5.0621655684   -4.1008928530
H        2.7734423006    5.8876471330   -1.7871451047
H        0.8901684615    3.1358356061   -4.5000899490
H        1.6407344236    4.7847927489    0.1218930921
H       -0.2449542585    2.0343771666   -2.5954990433
H        0.1243655903   -1.8966962758    0.7778874365
H       -1.0620538401   -2.3452384010   -0.4591255395
H       -0.3690127665   -0.4258222124   -1.8642234794
H        1.0406261234   -1.4257627656   -1.4770143736
H       -2.1211059205   -1.0611777782    1.4211668631
H       -2.2660949640   -0.2099494722   -0.1241920767
H        1.5648692651    0.9792842839   -1.1893447056
H        1.6823405446    0.1271970840    0.3358426752
H       -1.6124364244    1.3600277465    1.6323544138
H       -0.2140925032    0.3734451179    2.0711230050
29   

C        1.9537026311    4.5060363082   -3.2911410638
C        2.2165423621    4.9180628409   -1.9810839227
C        1.0036881569    3.5085561455   -3.5293622919
C        1.5329467946    4.3300876313   -0.9102712197
C        0.3221703372    2.9216753648   -2.4574199261
C        0.5885659209    3.3207272298   -1.1339230950
C       -0.1414099641    2.7241810341    0.0409898917
C       -0.4752306128   -1.4453246985    0.0314764879
C        0.3247735345   -0.6782323018   -1.0309007434
C       -1.4862184927   -0.5070755648    0.7042573084
C        1.0098088917    0.5425335843   -0.4087692896
C       -0.7804054593    0.7150732539    1.2999777366
N        0.0032020765    1.3776856913    0.2551823682
O       -0.8203332612    3.4309238469    0.7753851707
H        2.4795890156    4.9653033607   -4.1207853834
H        2.9450488079    5.6988925992   -1.7935985764
H        0.7894652993    3.1950370912   -4.5449350771
H        1.7285616283    4.6627549041    0.1039778486
H       -0.4242248371    2.1580455080   -2.6475310516
H        0.2094097339   -1.8454881316    0.7869891228
H       -0.9987060429   -2.2884453178   -0.4306460637
H       -0.3513439550   -0.3477354623   -1.8260539570
H        1.0761851183   -1.3363723459   -1.4780878825
H       -2.0281513910   -1.0408923671    1.4911037941
H       -2.2169558259   -0.1704951560   -0.0386703077
H        1.5748687060    1.0726111385   -1.1790508500
H        1.7400499196    0.2089320832    0.3361541004
H       -1.5351733608    1.3810826509    1.7313775673
H       -0.1157157838    0.4048399958    2.1129005950
29   

C        1.9895110435    4.4306542944   -3.3297756077
C        2.2932148378    4.7752293952   -2.0090593571
C        0.9579352156    3.5244598496   -3.5926018587
C        1.5668771688    4.2125830212   -0.9528467427
C        0.2343293864    2.9629136925   -2.5347439843
C        0.5360635878    3.2990662160   -1.2029874935
C       -0.2392574638    2.7103111832   -0.0512225979
C       -0.4120257221   -1.4090488767    0.0438561549
C        0.3943534490   -0.6292089609   -1.0051471752
C       -1.4336586484   -0.4830378086    0.7191645813
C        1.0637222641    0.5939137900   -0.3700211390
C       -0.7383158928    0.7391765454    1.3275500672
N        0.0382313131    1.4124189910    0.2849942795
O       -1.0519163097    3.3874362947    0.5650805771
H        2.5481664501    4.8707039037   -4.1483488388
H        3.0872395021    5.4839743878   -1.8022260306
H        0.7139092740    3.2618373867   -4.6158647929
H        1.7970255537    4.4911854418    0.0701730587
H       -0.5720968746    2.2676174524   -2.7415075373
H        0.2685577046   -1.8130280424    0.8009020085
H       -0.9273703584   -2.2505030344   -0.4303478198
H       -0.2759462256   -0.2983818114   -1.8052309906
H        1.1548285551   -1.2789951000   -1.4491866866
H       -1.9756637135   -1.0270804657    1.4988738392
H       -2.1632458621   -0.1454012611   -0.0245501490
H        1.6282657957    1.1341132450   -1.1342838114
H        1.7909606630    0.2659114614    0.3802092660
H       -1.4945071128    1.3969349114    1.7688069172
H       -0.0699005684    0.4269172939    2.1365381506
29   

C        1.9597772623    4.4102608245   -3.3030147178
C        2.3244892396    4.6304121645   -1.9713058624
C        0.8475311349    3.6161169934   -3.5969084486
C        1.5784828776    4.0548856240   -0.9359369287
C        0.1047950391    3.0418474656   -2.5593021966
C        0.4674564300    3.2511289130   -1.2180446058
C       -0.3382812286    2.6448241007   -0.0958331504
C       -0.3290288452   -1.4195522469    0.0978551652
C        0.4854034236   -0.6210901708   -0.9315010888
C       -1.3826361496   -0.5166779974    0.7561661313
C        1.1142717342    0.6164796030   -0.2818338958
C       -0.7228576773    0.7185157859    1.3777609937
N        0.0518520592    1.4085301857    0.3454717757
O       -1.2834748198    3.2495576972    0.3933961814
H        2.5335601363    4.8603121696   -4.1055309891
H        3.1814626888    5.2529388173   -1.7397171166
H        0.5555867082    3.4506390203   -4.6279159318
H        1.8581498421    4.2372872263    0.0962021410
H       -0.7646167774    2.4350470115   -2.7887204406
H        0.3432408040   -1.8133214606    0.8675127710
H       -0.8180015148   -2.2690392257   -0.3898189882
H       -0.1735071395   -0.3032140068   -1.7463887124
H        1.2688112463   -1.2542658458   -1.3593001426
H       -1.9267056843   -1.0734409665    1.5253552651
H       -2.1060484396   -0.1927858993    0.0002879852
H        1.6808799499    1.1698133487   -1.0354471802
H        1.8321242113    0.3069739114    0.4850161889
H       -1.4954252631    1.3612945363    1.8127681411
H       -0.0581408466    0.4184863646    2.1943469417
29   

C        2.0135240084    4.4404973084   -3.3394677007
C        2.4312115977    4.4847832334   -2.0060939022
C        0.8140026217    3.8041186130   -3.6706060344
C        1.6517733947    3.8891113771   -1.0073823749
C        0.0384194347    3.2094884297   -2.6691505400
C        0.4557238615    3.2344389562   -1.3281257146
C       -0.4009551480    2.6217430880   -0.2491176929
C       -0.2782332448   -1.3978584291    0.1726473110
C        0.5546532650   -0.6283941694   -0.8638864764
C       -1.3707387737   -0.4891312058    0.7545086090
C        1.1374277738    0.6514740176   -0.2531814913
C       -0.7542779019    0.7849496495    1.3401303082
N        0.0389815591    1.4471841895    0.3035105214
O       -1.4451524931    3.1586354261    0.0978292530
H        2.6131457870    4.9064168188   -4.1135248343
H        3.3553256466    4.9878353085   -1.7443380137
H        0.4791082827    3.7780538331   -4.7015079424
H        1.9737852550    3.9386778819    0.0272550703
H       -0.9007001077    2.7304425327   -2.9253827415
H        0.3751078570   -1.7432743432    0.9808093725
H       -0.7340275731   -2.2778705363   -0.2925529756
H       -0.0833916423   -0.3615034117   -1.7131063437
H        1.3638060010   -1.2632974149   -1.2377533187
H       -1.9291322592   -1.0220623652    1.5302709245
H       -2.0748460771   -0.2137459872   -0.0380143706
H        1.7109769794    1.1804222777   -1.0186682306
H        1.8392158814    0.3949394654    0.5472906936
H       -1.5502523604    1.4312935477    1.7249070452
H       -0.1095099454    0.5337855462    2.1885639879
29   

C        2.0040071348    4.4822145370   -3.3445066659
C        2.4607582301    4.3647152580   -2.0288671822
C        0.7514329781    3.9697208978   -3.6920719566
C        1.6678471408    3.7296541807   -1.0656286703
C       -0.0370671823    3.3353890009   -2.7257706359
C        0.4186642098    3.1916231022   -1.4044098548
C       -0.4615813800    2.5462008064   -0.3670669440
C       -0.2496548408   -1.3958369644    0.2697919494
C        0.5921126004   -0.6574379045   -0.7817112264
C       -1.3544043185   -0.4743421449    0.8062017538
C        1.1566792739    0.6500643911   -0.2127202187
C       -0.7504335992    0.8229956454    1.3527195274
N        0.0449420713    1.4570684856    0.3002046945
O       -1.5792037431    2.9909078433   -0.1362023627
H        2.6141967932    4.9785569569   -4.0908919465
H        3.4260670362    4.7737572995   -1.7524429891
H        0.3850967096    4.0707638009   -4.7075435945
H        2.0224249496    3.6585755176   -0.0429621902
H       -1.0177503295    2.9554411402   -2.9931098849
H        0.3951375200   -1.7093363461    1.0975042945
H       -0.6944863232   -2.2939543207   -0.1708512850
H       -0.0364464424   -0.4275114341   -1.6487246129
H        1.4109668940   -1.2989272966   -1.1216788774
H       -1.9186229868   -0.9829550883    1.5939205407
H       -2.0511134620   -0.2312336594   -0.0033969606
H        1.7303197304    1.1521766536   -0.9953677239
H        1.8531198240    0.4317316954    0.6035831949
H       -1.5513341561    1.4789290366    1.7104693264
H       -0.1102707106    0.6047889117    2.2136211966
29   

C        1.9520995941    4.5616885833   -3.2966203974
C        2.4479142347    4.2845382666   -2.0202558756
C        0.6635371113    4.1491853345   -3.6430008371
C        1.6581560684    3.5898808287   -1.0962458673
C       -0.1211860125    3.4548750208   -2.7158434577
C        0.3702120281    3.1489363833   -1.4342014986
C       -0.5136245038    2.4340216378   -0.4489236937
C       -0.2068805407   -1.4248393584    0.4093633178
C        0.6235594744   -0.7225143301   -0.6741455717
C       -1.3228122462   -0.4943626866    0.9040898909
C        1.1701534794    0.6178455247   -0.1674010683
C       -0.7339407983    0.8331124440    1.3926495367
N        0.0519997049    1.4359654201    0.3146187933
O       -1.6806583449    2.7777435544   -0.3024833397
H        2.5601009757    5.1039096569   -4.0122304878
H        3.4419673193    4.6165173627   -1.7424520789
H        0.2664300398    4.3729970493   -4.6267756098
H        2.0482666374    3.4027621103   -0.1016267802
H       -1.1284051265    3.1515854229   -2.9834156994
H        0.4422037322   -1.6929679932    1.2494980132
H       -0.6401000898   -2.3470677735    0.0086907363
H       -0.0091373626   -0.5410961815   -1.5496569010
H        1.4510931919   -1.3668121692   -0.9867781814
H       -1.8813707228   -0.9746057337    1.7132797996
H       -2.0220836670   -0.2958800120    0.0844576343
H        1.7270116433    1.0877587435   -0.9810258986
H        1.8764607717    0.4484545004    0.6520657230
H       -1.5417763313    1.4951510312    1.7228632012
H       -0.0907676440    0.6598973292    2.2614431067
29   

C        1.9576457057    4.6534319553   -3.3048709703
C        2.4834967814    4.2306651129   -2.0824014649
C        0.6397863886    4.3349451583   -3.6362516146
C        1.6946936394    3.4849490725   -1.1979881731
C       -0.1435973591    3.5894616823   -2.7488446681
C        0.3730958681    3.1380447618   -1.5192833069
C       -0.5151527882    2.3495080386   -0.5965922448
C       -0.1957484006   -1.4182320273    0.4911356759
C        0.6390712963   -0.7725137064   -0.6224433403
C       -1.3094754925   -0.4601247307    0.9335641133
C        1.1886044519    0.5897315919   -0.1819590885
C       -0.7168891167    0.8878902677    1.3592035242
N        0.0777577817    1.4404006854    0.2603439713
O       -1.7123191574    2.6048726961   -0.5290699994
H        2.5656332058    5.2342047628   -3.9895688059
H        3.5016996790    4.4892181572   -1.8142183826
H        0.2192990470    4.6686875672   -4.5782793899
H        2.1177868725    3.1954378264   -0.2425233451
H       -1.1708836192    3.3555539421   -3.0104228768
H        0.4496023964   -1.6466074770    1.3457054184
H       -0.6308187147   -2.3574780714    0.1343257012
H        0.0087224560   -0.6326946279   -1.5072665848
H        1.4653808110   -1.4335656396   -0.9016494561
H       -1.8743849285   -0.8977463461    1.7622053473
H       -2.0038919464   -0.2999660945    0.1014168509
H        1.7402654565    1.0144013383   -1.0234635275
H        1.8982358150    0.4596608187    0.6418436657
H       -1.5235432553    1.5693644348    1.6508507910
H       -0.0802235489    0.7545645324    2.2396937888
29   

C        1.9379970749    4.7666769416   -3.2793091828
C        2.4990911539    4.2038504005   -2.1323674268
C        0.5950898563    4.5326155444   -3.5737640042
C        1.7207565962    3.4034737907   -1.2870287281
C       -0.1775004965    3.7324550302   -2.7257221722
C        0.3695258337    3.1418234348   -1.5677926079
C       -0.5160935644    2.2740913200   -0.7136222254
C       -0.2138864937   -1.4025497719    0.6069666543
C        0.6336748128   -0.8211194972   -0.5307169443
C       -1.3294997095   -0.4182116397    0.9791068535
C        1.1836104358    0.5613726193   -0.1601431789
C       -0.7380478384    0.9501016739    1.3384935417
N        0.0788736466    1.4458954107    0.2283664508
O       -1.7305411682    2.4451643935   -0.7227473234
H        2.5386702248    5.3885469452   -3.9336928570
H        3.5385420446    4.3956100123   -1.8909665508
H        0.1469384848    4.9712407565   -4.4582889250
H        2.1843815372    3.0175300342   -0.3869458675
H       -1.2218104056    3.5614108888   -2.9682203286
H        0.4206490555   -1.5838309362    1.4806673815
H       -0.6472577268   -2.3592276524    0.2974809934
H        0.0123022037   -0.7279427524   -1.4279722703
H        1.4604658371   -1.4985654162   -0.7658159549
H       -1.9085311149   -0.8076522449    1.8218586815
H       -2.0110032368   -0.3030747115    0.1289925817
H        1.7361482609    0.9360379172   -1.0247367409
H        1.8907468858    0.4741948048    0.6714588296
H       -1.5473670382    1.6491442627    1.5764488294
H       -0.1186226716    0.8636981860    2.2369004223
29   

C        1.8843181462    4.6142153054   -3.5347712534
C        2.1087693934    3.2655955425   -3.2594412603
C        0.8792083456    5.2956691904   -2.8508195015
C        1.3349775302    2.6027751988   -2.2986016715
C        0.1092918417    4.6286178498   -1.8925895910
C        0.3195241318    3.2657482849   -1.5883655174
C       -0.5218261705    2.6362666259   -0.5067391755
C        0.1629152629   -1.4314043512    0.6245742374
C        1.2845707958   -0.5652016495    0.0355370579
C       -1.1946186372   -0.9627524135    0.0853278595
C        1.0245151414    0.9123479876    0.3452778283
C       -1.4061411401    0.5279928611    0.3652741997
N       -0.2880606062    1.3022504040   -0.1759871354
O       -1.5363817430    3.1995287510   -0.1091435429
H        2.4821428586    5.1281743060   -4.2792061661
H        2.8799011117    2.7270020221   -3.7986701810
H        0.6926402689    6.3432889603   -3.0589118417
H        1.5230572036    1.5468214293   -2.1553995050
H       -0.6644561331    5.1810381733   -1.3684179395
H        0.1708550330   -1.3457132407    1.7166238582
H        0.3248408393   -2.4829851497    0.3671497298
H        1.3270742026   -0.7101699704   -1.0488656104
H        2.2479178645   -0.8688159275    0.4568230098
H       -2.0015595747   -1.5423852627    0.5444975825
H       -1.2309444664   -1.1306847698   -0.9958543582
H        1.8350641535    1.5289502721   -0.0507436591
H        1.0319011334    1.0558294596    1.4312902548
H       -2.3527840593    0.8435132077   -0.0871619854
H       -1.4788593086    0.6978256432    1.4451076936
29   

C        1.9442731151    4.5898244104   -3.4600813274
C        2.0409934023    3.2070855815   -3.2987280979
C        1.0114447524    5.3063177878   -2.7105685001
C        1.2120727534    2.5446799675   -2.3850198052
C        0.1859773274    4.6394970649   -1.7992914374
C        0.2739641300    3.2451463553   -1.6088681681
C       -0.6309372608    2.5946446853   -0.5969014588
C        0.2316531538   -1.3936547299    0.6690274810
C        1.3069855023   -0.5094071357    0.0239002916
C       -1.1534606459   -0.9865409967    0.1514996030
C        1.0102455550    0.9684911339    0.2974626686
C       -1.4113017352    0.5022116047    0.4007210388
N       -0.3338071959    1.3029228027   -0.1837076268
O       -1.6967363540    3.1201332931   -0.2940672150
H        2.5837506499    5.1038557599   -4.1690131104
H        2.7537372879    2.6436079020   -3.8903259669
H        0.9226469646    6.3798669554   -2.8339388789
H        1.2919362735    1.4664752881   -2.3181024043
H       -0.5366826344    5.2109092323   -1.2249462981
H        0.2645685657   -1.2749467126    1.7574939221
H        0.4224107457   -2.4464983058    0.4377945674
H        1.3232908323   -0.6854228512   -1.0565233684
H        2.2914861034   -0.7699979892    0.4246105487
H       -1.9285533129   -1.5823429384    0.6436429716
H       -1.2090071547   -1.1827972464   -0.9241420864
H        1.7880725705    1.5925170982   -0.1489610048
H        1.0535665750    1.1471949981    1.3773283461
H       -2.3796434170    0.7697133934   -0.0364841582
H       -1.4663513636    0.6958933673    1.4774496744
29   

C        2.0244825615    4.5798106851   -3.3812298470
C        2.0125687358    3.1844461498   -3.3307037102
C        1.1474833805    5.3070737227   -2.5749328257
C        1.1307516261    2.5196872818   -2.4700307991
C        0.2688255864    4.6376424171   -1.7165250928
C        0.2538436721    3.2319678160   -1.6370129072
C       -0.7185122337    2.5597071338   -0.7068303022
C        0.2716489433   -1.3418498775    0.6906431831
C        1.3120281965   -0.4458232390    0.0056054509
C       -1.1333760830   -0.9749615242    0.1974744155
C        0.9914271859    1.0304984357    0.2595238500
C       -1.4215054864    0.5107257112    0.4314669307
N       -0.3741550529    1.3262138034   -0.1870526446
O       -1.8289440962    3.0432438366   -0.5179149716
H        2.7038795863    5.0964054291   -4.0500377417
H        2.6807659041    2.6151585223   -3.9670417518
H        1.1415249478    6.3905288921   -2.6161708502
H        1.1198184668    1.4357149621   -2.4744718343
H       -0.4172499823    5.2112557063   -1.1011368882
H        0.3260529529   -1.2034288626    1.7758941865
H        0.4809349533   -2.3940634652    0.4729263045
H        1.3068631616   -0.6403977795   -1.0717032005
H        2.3111849915   -0.6784058226    0.3868192482
H       -1.8835173287   -1.5817722913    0.7141942206
H       -1.2070389469   -1.1881936010   -0.8739065447
H        1.7449220345    1.6583797397   -0.2213237021
H        1.0620737161    1.2319787181    1.3338573612
H       -2.4062908983    0.7457617180    0.0129054607
H       -1.4582607131    0.7190625778    1.5060897213
29   

C        2.0563994133    4.5566341174   -3.2888254518
C        1.9736791809    3.1633324102   -3.3478500084
C        1.2162779813    5.2636436643   -2.4258003881
C        1.0575696644    2.4799349764   -2.5394217527
C        0.3030651517    4.5754848559   -1.6195364744
C        0.2217359212    3.1717670371   -1.6503990003
C       -0.7972227827    2.4656673114   -0.7978951973
C        0.3209091337   -1.3298213196    0.7169881966
C        1.3227445853   -0.4144042492    0.0002403527
C       -1.1056522518   -0.9947931000    0.2637475746
C        0.9794813382    1.0563785912    0.2561074179
C       -1.4196904244    0.4847870547    0.5041908453
N       -0.4063923041    1.3168197263   -0.1485420159
O       -1.9472899339    2.8832148628   -0.7330793868
H        2.7615951692    5.0884343017   -3.9178348245
H        2.6129346686    2.6119024612   -4.0281385788
H        1.2644096312    6.3460600793   -2.3850123130
H        0.9877478133    1.4004321771   -2.6159892965
H       -0.3598693255    5.1305132085   -0.9633857293
H        0.4032663326   -1.1870578591    1.7998758411
H        0.5463160616   -2.3780119084    0.4959200660
H        1.2915462502   -0.6133412217   -1.0758338889
H        2.3369520071   -0.6244325619    0.3538144941
H       -1.8270751629   -1.6172462633    0.8022456262
H       -1.2053120743   -1.2117024127   -0.8048779616
H        1.7055674250    1.6942990033   -0.2527020335
H        1.0795313777    1.2677809366    1.3261221824
H       -2.4232636866    0.6949518240    0.1187804171
H       -1.4271759031    0.6956657916    1.5787630524
29   

C        2.0989295824    4.5257179115   -3.2484955953
C        1.9387689944    3.1466008148   -3.4083250677
C        1.3076735479    5.2131375321   -2.3245316915
C        0.9933970629    2.4570590410   -2.6399486660
C        0.3647487039    4.5191041784   -1.5582316159
C        0.2081405226    3.1291489630   -1.6930707911
C       -0.8442122980    2.4050396348   -0.8950834800
C        0.3295482149   -1.2700579791    0.7522147592
C        1.3086388687   -0.3506999797    0.0088015413
C       -1.1112556635   -0.9421211378    0.3387155501
C        0.9655332195    1.1194878837    0.2679700293
C       -1.4251249179    0.5364039594    0.5877353420
N       -0.4330125161    1.3659064177   -0.0996549513
O       -2.0180241337    2.7482669283   -0.9600292556
H        2.8264966014    5.0627934414   -3.8468053211
H        2.5406050918    2.6123076350   -4.1348626265
H        1.4163609185    6.2854813805   -2.2067770569
H        0.8620894917    1.3902342900   -2.7851365142
H       -0.2626446785    5.0582615938   -0.8558933279
H        0.4406932053   -1.1266871516    1.8323941544
H        0.5538032689   -2.3172724072    0.5253325042
H        1.2510450474   -0.5520366746   -1.0657835165
H        2.3326897405   -0.5548964726    0.3364931568
H       -1.8140974772   -1.5681373842    0.8972009715
H       -1.2398871888   -1.1599776623   -0.7267242611
H        1.6736086359    1.7562734940   -0.2675357274
H        1.0950460453    1.3397048206    1.3329711897
H       -2.4426780976    0.7421085819    0.2388664762
H       -1.3976830256    0.7496214529    1.6613824742
29   

C        2.1036020464    4.4907738243   -3.2036403472
C        1.8690548681    3.1392554877   -3.4732413424
C        1.3690974612    5.1375508076   -2.2057263598
C        0.9046654996    2.4360098669   -2.7418843754
C        0.4066550499    4.4304543831   -1.4763508926
C        0.1739387177    3.0681984938   -1.7274923633
C       -0.8892720635    2.3177926723   -0.9654632325
C        0.3475977489   -1.2116571983    0.7975672807
C        1.3039800380   -0.2719122376    0.0488840245
C       -1.1053921940   -0.9003436093    0.4119668254
C        0.9428594787    1.1920030296    0.3203676430
C       -1.4329054157    0.5727706820    0.6766053330
N       -0.4638988048    1.4114957359   -0.0312514368
O       -2.0758168340    2.5442644249   -1.1645103665
H        2.8460558557    5.0386119058   -3.7732269650
H        2.4284881784    2.6377342220   -4.2549438997
H        1.5378052375    6.1890031729   -2.0017965731
H        0.7163555070    1.3914457626   -2.9654910289
H       -0.1748949528    4.9382282591   -0.7140715252
H        0.4742855062   -1.0773276351    1.8771259208
H        0.5825419683   -2.2534823205    0.5569740570
H        1.2357049901   -0.4666423843   -1.0264087830
H        2.3351495916   -0.4631861810    0.3616719024
H       -1.7894916724   -1.5393398197    0.9788836303
H       -1.2508124070   -1.1129321946   -0.6524788527
H        1.6330725688    1.8407370458   -0.2249554306
H        1.0826440313    1.4127199571    1.3838931613
H       -2.4613764164    0.7713797498    0.3572408519
H       -1.3812268786    0.7818372282    1.7500901027
29   

C        2.0565430776    4.4477698182   -3.1558480666
C        1.7403814576    3.1434432943   -3.5480786950
C        1.4013646176    5.0234813725   -2.0632461695
C        0.7716494046    2.4161648933   -2.8466074454
C        0.4342730081    4.2931012758   -1.3634903360
C        0.1149901674    2.9794732965   -1.7455068607
C       -0.9363997098    2.1890865916   -1.0064844303
C        0.3889959699   -1.1655494243    0.8993530157
C        1.3185121092   -0.1964909146    0.1530971489
C       -1.0725166671   -0.9068260908    0.5051822611
C        0.9037616977    1.2563944606    0.4095582971
C       -1.4487485626    0.5570718115    0.7558127362
N       -0.5057580655    1.4164723704    0.0385988742
O       -2.1141816517    2.2558904411   -1.3332671189
H        2.8025349389    5.0141661032   -3.7021948840
H        2.2405119621    2.6973160913   -4.4003704406
H        1.6367129491    6.0380866783   -1.7619250088
H        0.5210157361    1.4085130411   -3.1606233529
H       -0.0814615944    4.7453652086   -0.5231289652
H        0.5046201715   -1.0223669840    1.9789511666
H        0.6610822564   -2.1997544919    0.6649943744
H        1.2667156837   -0.4004608802   -0.9215753225
H        2.3530588776   -0.3494212868    0.4755757533
H       -1.7371143657   -1.5634307105    1.0751267558
H       -1.2067847600   -1.1330403440   -0.5579924879
H        1.5752066888    1.9236295911   -0.1373219747
H        1.0242861319    1.4928238488    1.4719907396
H       -2.4832771148    0.7235529327    0.4375930381
H       -1.4028601757    0.7785046707    1.8270499672
29   

C        2.0604694916    4.4440652452   -3.1556830137
C        1.6625147554    3.2037608910   -3.6644145412
C        1.4914397728    4.9263194494   -1.9730880047
C        0.6971699379    2.4466717833   -2.9903364219
C        0.5275379780    4.1668962244   -1.3003987149
C        0.1238952267    2.9175151631   -1.8028996571
C       -0.9153942193    2.0836017344   -1.0971213059
C        0.4074770798   -1.1131109856    0.9826496383
C        1.3377823176   -0.1361120931    0.2473900667
C       -1.0472603302   -0.8944932583    0.5417374570
C        0.8830217504    1.3125730140    0.4596732956
C       -1.4592263256    0.5658726635    0.7525165151
N       -0.5168262311    1.4292583557    0.0394896749
O       -2.0533732252    1.9966185707   -1.5402649196
H        2.8040061954    5.0333746341   -3.6807271989
H        2.0966600886    2.8304487387   -4.5851316739
H        1.7921031512    5.8911897030   -1.5803656776
H        0.3823067630    1.4896076816   -3.3928803952
H        0.0812231443    4.5464867303   -0.3875571447
H        0.4876959074   -0.9488862835    2.0624055405
H        0.7090684592   -2.1448305118    0.7748390484
H        1.3246260977   -0.3622183244   -0.8241453455
H        2.3649231719   -0.2590882624    0.6044192082
H       -1.7140549618   -1.5537996273    1.1059268730
H       -1.1466698786   -1.1440303120   -0.5201362959
H        1.5563634627    1.9803898747   -0.0837078875
H        0.9649179939    1.5758977901    1.5194076308
H       -2.4890459529    0.7078630526    0.4079659404
H       -1.4433673252    0.8100406535    1.8196499928
29   

C        1.8501891131    4.4523160221   -3.1940661966
C        0.5185081391    4.5713998749   -2.7843851935
C        2.7419270523    3.6775800744   -2.4462221784
C        0.0784906654    3.9138730771   -1.6296048420
C        2.2998971938    3.0201624739   -1.2926830647
C        0.9593508783    3.1269401888   -0.8775414477
C        0.4508480617    2.4438189795    0.3644946993
C       -1.2071236307   -1.1875490841    0.0749884093
C       -0.6637617813   -0.4025452412   -1.1283793394
C       -1.2896917976   -0.2768344806    1.3084486390
C        0.6866006825    0.2437798021   -0.7960666020
C        0.0739894373    0.3585588689    1.5973269602
N        0.5268349420    1.0730192780    0.4028019599
O       -0.0086205726    3.0988394811    1.2918109320
H        2.1919857095    4.9659445938   -4.0857806692
H       -0.1732690803    5.1788968538   -3.3570556758
H        3.7773427420    3.5915361090   -2.7562242642
H       -0.9522151178    4.0187942490   -1.3066932940
H        2.9970004762    2.4288145217   -0.7088161334
H       -0.5417330273   -2.0302525778    0.2900830902
H       -2.1980486397   -1.5905165366   -0.1581041784
H       -1.3784423372    0.3821951576   -1.3986688209
H       -0.5549263393   -1.0685515197   -1.9898924668
H       -1.6243485059   -0.8510405240    2.1778326501
H       -2.0226319484    0.5167229160    1.1268300675
H        1.0296786565    0.8049238003   -1.6684163271
H        1.4340401565   -0.5327249610   -0.6025834348
H       -0.0066025101    1.0223414258    2.4648117772
H        0.8014653336   -0.4171675005    1.8573482719
29   

C        1.8805562408    4.5310231004   -3.1485646836
C        0.5728828997    4.7477745076   -2.7042234968
C        2.7026543287    3.6234636107   -2.4746127290
C        0.0856306654    4.0526737700   -1.5912064941
C        2.2138511566    2.9287565852   -1.3625750619
C        0.8909203757    3.1245347830   -0.9182011646
C        0.3294387656    2.4302020805    0.2927165648
C       -1.1410844667   -1.2576489955    0.1695986599
C       -0.6365679874   -0.4990188953   -1.0663266779
C       -1.2405202113   -0.3054156349    1.3694704721
C        0.6941518106    0.2054093662   -0.7746733157
C        0.1058248980    0.3820417527    1.6189259339
N        0.5249391812    1.0711664282    0.3972186980
O       -0.2424150673    3.0717039936    1.1662289588
H        2.2590066232    5.0734052814   -4.0078525085
H       -0.0634294100    5.4606590593   -3.2165266363
H        3.7219837905    3.4645355776   -2.8081999553
H       -0.9246836731    4.2370774668   -1.2399553649
H        2.8644335157    2.2414348600   -0.8326759517
H       -0.4463625530   -2.0700749420    0.4070407277
H       -2.1207956976   -1.7001732315   -0.0378773658
H       -1.3807335685    0.2507292183   -1.3558408949
H       -0.5144785203   -1.1911406757   -1.9052072441
H       -1.5482509259   -0.8574264903    2.2627885351
H       -2.0001209689    0.4576492172    1.1673113804
H        0.9973923084    0.7491045188   -1.6720247884
H        1.4729166212   -0.5364005824   -0.5689432202
H        0.0154303105    1.0733989304    2.4637427122
H        0.8599361682   -0.3613422392    1.8967668013
29   

C        1.9376477402    4.6024056824   -3.1052365512
C        0.6597671731    4.9009768931   -2.6250774530
C        2.6759778977    3.5711112612   -2.5192827113
C        0.1165237223    4.1620165922   -1.5677071882
C        2.1315705608    2.8326776637   -1.4626283274
C        0.8294446242    3.1020724471   -0.9897505518
C        0.2101696836    2.3915637721    0.1829030555
C       -1.0915165320   -1.3332908096    0.2658951728
C       -0.6327228330   -0.6143946075   -1.0099511164
C       -1.2015983135   -0.3310597271    1.4227151710
C        0.6790313443    0.1445736332   -0.7749349102
C        0.1271626207    0.4071268174    1.6179648555
N        0.5103726477    1.0558023403    0.3624348831
O       -0.4541208445    3.0147638766    1.0035873322
H        2.3597904164    5.1785633128   -3.9210790812
H        0.0901325735    5.7117574549   -3.0651887146
H        3.6762056801    3.3514650154   -2.8754500631
H       -0.8689809183    4.4146812697   -1.1889673175
H        2.7314052428    2.0592506408   -0.9957722058
H       -0.3673123253   -2.1121503577    0.5264136326
H       -2.0600112411   -1.8146206514    0.0953109903
H       -1.4059019804    0.0979355071   -1.3174576251
H       -0.5030076196   -1.3379591045   -1.8207167819
H       -1.4786389911   -0.8507033939    2.3449657208
H       -1.9875947849    0.3986624986    1.1991126340
H        0.9382529609    0.6616268296   -1.7013162192
H        1.4875380135   -0.5616593200   -0.5588897239
H        0.0289835453    1.1337903515    2.4318298236
H        0.9072339570   -0.3003322173    1.9169716722
29   

C        1.9962357320    4.6922613157   -3.0681434052
C        0.7560047917    5.0577073690   -2.5403909812
C        2.6430545494    3.5508479305   -2.5900030363
C        0.1566419748    4.2747674624   -1.5470713490
C        2.0430536638    2.7682798951   -1.5970506464
C        0.7680906892    3.0993706704   -1.0844893482
C        0.0934719097    2.3673443462    0.0458908221
C       -1.0412496036   -1.3818084896    0.3746458065
C       -0.6362096686   -0.7170833199   -0.9468046830
C       -1.1661897785   -0.3204902458    1.4750783174
C        0.6514098542    0.0994678179   -0.7835560173
C        0.1391293337    0.4730975683    1.6028131404
N        0.4849115239    1.0651225231    0.3085310300
O       -0.6531413258    2.9673497800    0.8122298599
H        2.4623039718    5.3022737409   -3.8339205234
H        0.2590401300    5.9545810743   -2.8928026557
H        3.6191107848    3.2805556020   -2.9770458843
H       -0.7980106710    4.5855682177   -1.1338774692
H        2.5928564140    1.9191548069   -1.2081624638
H       -0.2832160568   -2.1180756548    0.6613597109
H       -1.9943734054   -1.9063584827    0.2513710331
H       -1.4414508857   -0.0500338122   -1.2730680014
H       -0.4977248316   -1.4776087940   -1.7215253871
H       -1.4086349440   -0.7962463702    2.4301212693
H       -1.9817533886    0.3674965997    1.2262870176
H        0.8607608301    0.5800495551   -1.7419128757
H        1.4919259378   -0.5651227457   -0.5576577137
H        0.0280541841    1.2421600501    2.3750766591
H        0.9475889157   -0.1890853110    1.9287496052
29   

C        2.0467096484    4.7868500055   -3.0195126674
C        0.8528156198    5.2003125073   -2.4266000047
C        2.5978796729    3.5518842488   -2.6747596692
C        0.2017666280    4.3728056510   -1.5046811491
C        1.9472224337    2.7240210199   -1.7527706661
C        0.7089210699    3.1030459687   -1.1822024210
C       -0.0175743968    2.3397513217   -0.1006412949
C       -0.9907946065   -1.4163053739    0.4929081173
C       -0.6335532267   -0.8193557140   -0.8727005247
C       -1.1450170630   -0.2916290481    1.5234542101
C        0.6227909202    0.0549248289   -0.7841663816
C        0.1299566592    0.5581029798    1.5825842499
N        0.4487764766    1.0798805817    0.2510465536
O       -0.8480336323    2.9068458497    0.6027355731
H        2.5530020960    5.4310272994   -3.7297600385
H        0.4315992015    6.1686573240   -2.6724626493
H        3.5427662728    3.2430128909   -3.1075808536
H       -0.7148831931    4.7285292635   -1.0444229207
H        2.4460221430    1.8076928353   -1.4638829267
H       -0.1987356932   -2.1012202711    0.8129082717
H       -1.9231216166   -1.9855186870    0.4182310433
H       -1.4699179002   -0.2051088037   -1.2234762357
H       -0.4777740280   -1.6196726248   -1.6028004834
H       -1.3588115015   -0.7129521922    2.5103236560
H       -1.9897667979    0.3464762155    1.2412790826
H        0.7844104788    0.4889236536   -1.7737289095
H        1.4950467107   -0.5620673336   -0.5438944489
H       -0.0053512626    1.3723731943    2.3029482442
H        0.9652866202   -0.0497675179    1.9444635115
