25   

C       -0.2394542626   -5.5681374148   -3.7790585707
C        0.0371698568   -4.7721854038   -2.5916559767
C       -0.4762089321   -4.7867473593   -4.8794522998
C       -0.0320743848   -1.0294296958   -1.8552106616
C        0.2404608229   -2.3720519471   -1.8595235012
C       -0.0001617853   -3.4173698093   -2.8393193816
C        0.4367672072   -0.5476013346   -0.5688651581
C       -2.2025691982   -0.3142745888   -2.9222601918
C        0.3307969533    0.8454420866   -0.0217312675
C       -0.6832568288   -0.1624552470   -2.9153015538
N        0.9374679056   -1.5381735840    0.1208474601
N        0.8188893528   -2.6537362351   -0.6506856914
O       -2.7561086145   -0.5384167054   -3.9863030049
O       -2.8670044002   -0.1639148602   -1.7486627973
S       -0.3707744533   -3.0698988982   -4.5109459257
H       -0.2590965317   -6.6526579981   -3.7915475418
H        0.2371221368   -5.2145181496   -1.6235391957
H       -0.7057016543   -5.1694994029   -5.8672813138
H       -0.5539615161    1.3487714509   -0.4195613674
H        0.2574786289    0.8139217958    1.0691785867
H        1.2215027465    1.4166055489   -0.2961436683
H       -0.2779034679   -0.3949025760   -3.9020403396
H       -0.4505385810    0.8884055397   -2.7297405406
H        1.1440010726   -3.5779748969   -0.3797190061
H       -3.8067504320   -0.3117038697   -1.9414170261
25   

C       -0.2555247848   -5.4380138559   -4.0003945124
C       -0.1126029348   -4.6790522560   -2.7661238524
C       -0.1104074779   -4.6471887839   -5.1106667063
C        0.0582132943   -1.0041052859   -1.9074920785
C        0.3398292724   -2.3406023283   -1.9612229066
C        0.1325320198   -3.3438956784   -2.9927386050
C        0.4917197600   -0.5759478042   -0.5902256984
C       -2.1106296264   -0.2647428291   -2.9049897102
C        0.3750193277    0.7945904426    0.0089255819
C       -0.5933418130   -0.1148993140   -2.9450579149
N        0.9684913186   -1.5968541739    0.0732782360
N        0.8747282051   -2.6797696321   -0.7478975860
O       -2.6548033713   -0.9382225847   -3.7645149302
O       -2.7859374930    0.4097591603   -1.9409658097
S        0.2027502305   -2.9659761450   -4.6950898536
H       -0.4583644078   -6.5029336207   -4.0377892975
H       -0.2070204354   -5.1233331554   -1.7824824192
H       -0.1834442819   -5.0033143311   -6.1317548157
H       -0.4737896854    1.3331052077   -0.4195749900
H        0.2349153404    0.7183530791    1.0910149192
H        1.2907060411    1.3590334332   -0.1853660636
H       -0.2231668029   -0.3445452966   -3.9457149397
H       -0.3418342170    0.9308587457   -2.7527646769
H        1.1987817693   -3.6150722225   -0.5141164044
H       -3.7244247970    0.1892802110   -2.0566516001
25   

C       -0.3044382272   -5.3574895407   -4.0030347068
C       -0.2513703970   -4.5822794985   -2.7714652856
C        0.1189661848   -4.6320533264   -5.0876485365
C        0.0848226058   -0.9704016685   -1.8991121533
C        0.3992661791   -2.2969924972   -1.9443949881
C        0.2026457551   -3.3020727775   -2.9789424208
C        0.5154405327   -0.5232345945   -0.5869987976
C       -2.1300354117   -0.2407961896   -2.7812422295
C        0.4159803496    0.8578826800   -0.0094881584
C       -0.6179389176   -0.1331398795   -2.9454596208
N        1.0377500078   -1.5254091491    0.0726071481
N        0.9749828727   -2.6141193461   -0.7450194134
O       -2.7476998619   -0.9814678051   -3.5286027057
O       -2.7200070466    0.5372977539   -1.8396093077
S        0.5926513949   -2.9929134980   -4.6525641157
H       -0.6440418934   -6.3862351635   -4.0573423367
H       -0.5503452478   -4.9692223049   -1.8041725704
H        0.1562445083   -5.0120370058   -6.1020630814
H       -0.4937713099    0.9355529296    0.5919521845
H        1.2767243207    1.0551262796    0.6357567749
H        0.3823578081    1.6120407707   -0.7984773675
H       -0.3356113996   -0.4486217061   -3.9515733709
H       -0.3285500091    0.9155521009   -2.8494246220
H        1.3346422080   -3.5381378235   -0.5166785538
H       -3.6682130988    0.3297543015   -1.8664797161
25   

C       -0.3666271757   -5.3332134125   -4.0360281701
C       -0.3988748103   -4.5441299542   -2.8122416866
C        0.3017807832   -4.6905659145   -5.0482227402
C        0.0442352183   -1.0231702012   -1.8738628990
C        0.4144036417   -2.3321734013   -1.9144152642
C        0.2384271745   -3.3374744119   -2.9568747610
C        0.4981176071   -0.5410579837   -0.5831582650
C       -2.2094498440   -0.3009716704   -2.6522753843
C        0.3599005881    0.8444068235   -0.0254382185
C       -0.7104554896   -0.2429241041   -2.9260149499
N        1.0866597900   -1.5119776073    0.0688420853
N        1.0454399433   -2.6131347011   -0.7350036433
O       -2.8800774490   -1.1284537068   -3.2475365571
O       -2.7308512360    0.6079430219   -1.7911001890
S        0.9110374363   -3.1131745276   -4.5547314065
H       -0.8225744440   -6.3122907167   -4.1366461826
H       -0.8805360744   -4.8651267358   -1.8955818521
H        0.4398483692   -5.0960541376   -6.0438962378
H       -0.5009389949    0.8816670280    0.6474235219
H        1.2562080356    1.1081261884    0.5429860548
H        0.2146793273    1.5752146937   -0.8239243604
H       -0.5081857240   -0.6448825363   -3.9216248933
H       -0.3882329420    0.8010016025   -2.9264550458
H        1.4479185419   -3.5204063664   -0.5098521549
H       -3.6804695397    0.4141572689   -1.7298296587
25   

C       -1.1496602907   -5.0914346027   -4.3680675119
C       -1.3354992757   -4.2762715012   -3.1753014171
C        0.0960861924   -4.9239194993   -4.9210640144
C       -0.0759886535   -1.2525069394   -1.7352220846
C       -0.0727358126   -2.6112370407   -1.7546113880
C       -0.2230728286   -3.5303678158   -2.8823393920
C        0.1252608892   -0.8923095119   -0.3453425660
C       -1.7335301756    0.0929157902   -3.0152873699
C        0.2243158291    0.4883608279    0.2315478884
C       -0.2705113109   -0.3242645535   -2.9108818820
N        0.2315339544   -1.9773493807    0.3801405523
N        0.1138398266   -3.0380588155   -0.4703214631
O       -2.4886323196   -0.5885488055   -3.6895744018
O       -2.1137880383    1.2300004559   -2.3815460794
S        1.0835100374   -3.7768030735   -4.0191036225
H       -1.9108126492   -5.7485021343   -4.7748780708
H       -2.2496833820   -4.2455175342   -2.5929923522
H        0.4410089376   -5.4311328089   -5.8147148358
H       -0.7387968882    0.7730120981    0.6633217341
H        0.9787230498    0.5077482197    1.0230798057
H        0.4939559631    1.2146018671   -0.5384856860
H        0.0325385544   -0.8167487088   -3.8388570274
H        0.3509368433    0.5671116749   -2.7950445695
H        0.1706953161   -4.0181420498   -0.2013911350
H       -3.0662669998    1.3287455157   -2.5434409254
25   

C       -1.1351710491   -4.8979235795   -4.4607101408
C       -1.3161877430   -4.0350757564   -3.3013388847
C        0.1875238159   -5.0333844934   -4.8047376936
C       -0.0451086274   -1.2805773884   -1.7030234138
C        0.0409160556   -2.6362598419   -1.6980115104
C       -0.1225733426   -3.5723850782   -2.8116490179
C        0.1574018268   -0.8807025635   -0.3249483699
C       -1.8032918594   -0.0160059790   -2.9336712666
C        0.1901102824    0.5165398143    0.2182837384
C       -0.3256905176   -0.3923136195   -2.8916652075
N        0.3297992139   -1.9430874372    0.4207646870
N        0.2551344671   -3.0261930215   -0.4066000802
O       -2.6021106266   -0.8308227832   -3.3677402100
O       -2.1532264492    1.2217707207   -2.5046173284
S        1.2566299066   -4.1259307267   -3.7376274757
H       -1.9535407561   -5.3686158715   -4.9948262996
H       -2.2801947747   -3.7605041525   -2.8860846576
H        0.5435113400   -5.6254901040   -5.6399091290
H       -0.7818144475    0.7612521805    0.6547060538
H        0.9508418588    0.5940695918    1.0001379369
H        0.4135872415    1.2365234408   -0.5722935835
H       -0.0584162239   -0.9047453517   -3.8200160209
H        0.2789902954    0.5162719857   -2.8328914911
H        0.3472460458   -3.9974963808   -0.1162345618
H       -3.1193887323    1.2781770166   -2.5862827895
25   

C       -1.1343822388   -4.8317050141   -4.5417045804
C       -1.2992312829   -3.8926095262   -3.4408313313
C        0.1730962326   -5.2194090902   -4.7014496014
C       -0.0618985220   -1.3166614864   -1.7337476376
C        0.0752670196   -2.6694887443   -1.7163071596
C       -0.1133948575   -3.6243547523   -2.8065492069
C        0.1766909513   -0.8916983461   -0.3687324846
C       -1.8781301939   -0.0460308570   -2.8885903432
C        0.1822194990    0.5130818892    0.1558055039
C       -0.4058072289   -0.4448049499   -2.9192281110
N        0.4138760784   -1.9368248948    0.3830359895
N        0.3474586871   -3.0328222863   -0.4275135627
O       -2.7070214003   -0.8403960259   -3.3033013288
O       -2.1901814521    1.1909315694   -2.4295714233
S        1.2461820053   -4.4653622591   -3.5249730045
H       -1.9515072972   -5.1751412042   -5.1669871717
H       -2.2441058131   -3.4370703970   -3.1634267023
H        0.5167298285   -5.9079006514   -5.4648357107
H       -0.7840297969    0.7344172862    0.6166282848
H        0.9620643205    0.6242320628    0.9144157540
H        0.3611538083    1.2285909727   -0.6500816867
H       -0.1958033262   -0.9743972955   -3.8526795522
H        0.2123392592    0.4566405797   -2.9104867255
H        0.4774553330   -3.9966712963   -0.1269055899
H       -3.1577918991    1.2644004196   -2.4723583948
25   

C       -1.1225773010   -4.7940505635   -4.6099131845
C       -1.2790702022   -3.7806876046   -3.5758501764
C        0.1244651911   -5.3670656118   -4.5902207558
C       -0.1239103615   -1.3233177002   -1.7403978169
C        0.0481214302   -2.6742984023   -1.7347131845
C       -0.1481538487   -3.6357111447   -2.8124791643
C        0.1638477141   -0.8973718928   -0.3844280141
C       -1.9811385434   -0.0210042753   -2.8096162297
C        0.1629501992    0.5048554969    0.1473559477
C       -0.5172074018   -0.4417266569   -2.9046852915
N        0.4624543010   -1.9377783209    0.3511907947
N        0.3895953636   -3.0320217950   -0.4603460692
O       -2.8322389759   -0.7623913631   -3.2735693650
O       -2.2607601092    1.1830914450   -2.2532611078
S        1.1479569273   -4.7021112598   -3.3202999035
H       -1.9024467682   -5.0582144277   -5.3161056977
H       -2.1834805583   -3.2013822641   -3.4280404010
H        0.4523399803   -6.1396673413   -5.2761463468
H       -0.7907781553    0.7071562234    0.6417709336
H        0.9662667531    0.6263110010    0.8794518784
H        0.3020752383    1.2273830177   -0.6601166188
H       -0.3522035789   -0.9661829723   -3.8498955341
H        0.1108284861    0.4528062566   -2.9192722297
H        0.5592043002   -3.9926925702   -0.1694459472
H       -3.2273661784    1.2775047684   -2.2734472382
25   

C       -1.0723116563   -4.7318825621   -4.7064211173
C       -1.2054071825   -3.6606339672   -3.7292475700
C        0.0728013144   -5.4638435926   -4.5203987435
C       -0.1526571639   -1.3220138035   -1.7397712120
C        0.0384130219   -2.6726883389   -1.7614108733
C       -0.1577160718   -3.6249228291   -2.8423469620
C        0.1879409719   -0.9110740564   -0.3904789758
C       -2.0466321246   -0.0059063294   -2.7392046838
C        0.1942561403    0.4821607790    0.1651638012
C       -0.5814444432   -0.4134355727   -2.8718836355
N        0.5384236995   -1.9557012988    0.3146764778
N        0.4490549507   -3.0383987112   -0.5094492126
O       -2.8916065493   -0.6748865744   -3.3113505850
O       -2.3324619324    1.1175953922   -2.0369456858
S        1.0243376134   -4.8811960863   -3.1584293583
H       -1.7967475527   -4.9242135651   -5.4906008572
H       -2.0432581941   -2.9748000580   -3.7035833449
H        0.3670711501   -6.3052048135   -5.1372108955
H       -0.7458885598    0.6699137323    0.6903340925
H        1.0179802238    0.5968571073    0.8753726416
H        0.3054606243    1.2196378846   -0.6329452573
H       -0.4247459612   -0.9063489548   -3.8350850207
H        0.0361812823    0.4883268522   -2.8733844983
H        0.6531441805   -3.9989552940   -0.2412189927
H       -3.2986420016    1.2162443681   -2.0575088784
25   

C       -0.9745573360   -4.6716587441   -4.7682107225
C       -1.0817127831   -3.5435138612   -3.8542202323
C        0.0271187546   -5.5357287635   -4.4092336051
C       -0.1920525548   -1.2888785153   -1.7253308351
C        0.0185843682   -2.6392502899   -1.7586590364
C       -0.1543661962   -3.5911959605   -2.8407439155
C        0.1744101087   -0.8782507195   -0.3817116260
C       -2.1211245576   -0.0185834732   -2.7260666341
C        0.1684068434    0.5098870249    0.1877939695
C       -0.6382024915   -0.3639564627   -2.8387956063
N        0.5672364519   -1.9178104946    0.3069948524
N        0.4794530155   -2.9966102015   -0.5210043851
O       -2.9136168319   -0.6147092694   -3.4369926280
O       -2.4782193563    0.9815362082   -1.8838917268
S        0.8702058162   -5.0100136487   -2.9568834712
H       -1.6170727714   -4.8098298711   -5.6312596868
H       -1.8279159349   -2.7673801472   -3.9614014176
H        0.2777767027   -6.4403443109   -4.9512671569
H       -0.7646049249    0.6763948069    0.7324745112
H        1.0034017673    0.6314987149    0.8835657361
H        0.2520824171    1.2582780270   -0.6032057625
H       -0.4346926305   -0.8138722668   -3.8138171839
H       -0.0615632128    0.5634141597   -2.7991608547
H        0.7176500617   -3.9524426589   -0.2643199733
H       -3.4449862235    1.0570422118   -1.9405659382
25   

C       -0.8422330130   -4.6508872694   -4.8157281849
C       -0.8958444069   -3.4759254471   -3.9580940752
C       -0.0297228173   -5.6278038294   -4.3052028046
C       -0.1907412056   -1.2908839082   -1.7053932665
C        0.0450753445   -2.6406706168   -1.7512960624
C       -0.1159560001   -3.5971241929   -2.8306256015
C        0.2407862467   -0.8700548541   -0.3835184614
C       -2.1895977816   -0.1630335619   -2.7660445988
C        0.2087420178    0.5107773633    0.2034458315
C       -0.6734352797   -0.3495643445   -2.7912092839
N        0.6793049333   -1.9004867227    0.2885086633
N        0.5616383153   -2.9819931210   -0.5301132305
O       -2.8462949779   -0.6203103728   -3.6872138264
O       -2.7267389733    0.5572735750   -1.7513394577
S        0.6943266646   -5.1524908094   -2.7749291295
H       -1.3890690349   -4.7402916052   -5.7483532844
H       -1.5110920876   -2.6194267171   -4.1929937596
H        0.1502969837   -6.5849595548   -4.7810331887
H       -0.4998014605    1.1488728752   -0.3285638860
H       -0.0811874399    0.4597886359    1.2566490500
H        1.2046147129    0.9571845960    0.1405106363
H       -0.3538877391   -0.7068135859   -3.7732450084
H       -0.2078543624    0.6300534459   -2.6567327652
H        0.8274511658   -3.9325222439   -0.2810393443
H       -3.6868597862    0.5679851467   -1.8968464593
25   

C       -0.7379675451   -4.6495717191   -4.9994702145
C       -0.6672548792   -3.4507610435   -4.1768335012
C       -0.2095911761   -5.7429932124   -4.3684322119
C       -0.0999802408   -1.3715078494   -1.7886447283
C        0.1230669007   -2.7236446444   -1.8674474981
C       -0.0799948880   -3.6698881101   -2.9498637425
C        0.3598183860   -0.9790599484   -0.4680919801
C       -2.1454085620   -0.3540992978   -2.8607591784
C        0.3126396889    0.3860267418    0.1536625257
C       -0.6198773758   -0.3949403490   -2.8247204490
N        0.8179736224   -2.0215477340    0.1697587338
N        0.6795215568   -3.0844241560   -0.6690756187
O       -2.7125332298   -0.7371739798   -3.8711335900
O       -2.7934238287    0.1606751216   -1.7870454451
S        0.3894535653   -5.3516370482   -2.7632071763
H       -1.1673780244   -4.6708505791   -5.9954369775
H       -1.0634963314   -2.5061913233   -4.5186815105
H       -0.1644870936   -6.7366563143   -4.7991949997
H       -0.4966455440    0.9813936938   -0.2757786501
H        0.1530405627    0.2990108976    1.2321643256
H        1.2629849008    0.8988047101   -0.0167845554
H       -0.2192127593   -0.6357696842   -3.8116259005
H       -0.2608184524    0.6111191002   -2.5951589058
H        0.9538892976   -4.0390887332   -0.4465644825
H       -3.7431054111    0.0986853718   -1.9798292225
25   

C       -0.7955674720   -4.5213381473   -4.9197204968
C       -0.5091708640   -3.3103864048   -4.1644477883
C       -0.6848605538   -5.6495123556   -4.1515997260
C       -0.0479699659   -1.2428991861   -1.7475815651
C        0.1362986170   -2.5998858606   -1.8109688338
C       -0.1963372879   -3.5602435353   -2.8467708235
C        0.4673727730   -0.8443748580   -0.4501372080
C       -2.1500956268   -0.5678184412   -2.9891132031
C        0.4613549622    0.5284435499    0.1554460680
C       -0.6628524814   -0.3019476836   -2.7653338802
N        0.9190539801   -1.8905522024    0.1879873079
N        0.7181172877   -2.9630919081   -0.6264854747
O       -2.5488250041   -0.6499935883   -4.1398627157
O       -2.9564077017   -0.6853575990   -1.9052220044
S       -0.2327103272   -5.2787351269   -2.4934267885
H       -1.0671808185   -4.5250447065   -5.9699776083
H       -0.5408930024   -2.3301566502   -4.6195563848
H       -0.8561648186   -6.6564612362   -4.5144821528
H       -0.4351690843    1.0765662474   -0.1447743025
H        0.4804441412    0.4564777245    1.2468576918
H        1.3458114750    1.0795324982   -0.1748852896
H       -0.1210021047   -0.3749203010   -3.7109919458
H       -0.5571254850    0.7323101915   -2.4316770623
H        0.9632127582   -3.9235456234   -0.3951236728
H       -3.8465770137   -0.8808099394   -2.2392047189
25   

C       -0.7846915129   -4.4262071086   -4.9211178500
C       -0.3473617319   -3.2566310220   -4.1727969228
C       -0.9794374945   -5.5156816491   -4.1120385789
C       -0.0201801619   -1.2073627005   -1.7206964607
C        0.1613939949   -2.5610809937   -1.7944851607
C       -0.2312951121   -3.5034631077   -2.8252391934
C        0.5416692220   -0.8180559986   -0.4401670233
C       -2.1427959964   -0.7532461191   -3.0496926966
C        0.6210859638    0.5615536920    0.1438158870
C       -0.7268447133   -0.2931124853   -2.7039907553
N        1.0270486796   -1.8679098888    0.1693384314
N        0.8019533340   -2.9364345373   -0.6457055590
O       -2.4839673857   -0.7058198484   -4.2208125851
O       -2.9498209542   -1.1888535673   -2.0505853681
S       -0.6409137237   -5.1594570859   -2.4221238179
H       -0.9409420774   -4.4300968804   -5.9946031271
H       -0.1373758277   -2.3013922215   -4.6382007119
H       -1.3067919416   -6.4873935755   -4.4635748970
H       -0.2791776163    0.7607540676    0.7315398835
H        1.4910049227    0.6393279348    0.8023510803
H        0.7056072455    1.3124684240   -0.6451446345
H       -0.1329032339   -0.2155722138   -3.6181558317
H       -0.8062754231    0.7126351015   -2.2864199350
H        1.0612647528   -3.8979178388   -0.4350920446
H       -3.7786658619   -1.4745811773   -2.4666966183
25   

C       -0.7131899531   -4.4174354848   -4.9412008228
C       -0.1882718221   -3.2798389690   -4.1995794522
C       -1.1321748662   -5.4272834482   -4.1123042137
C       -0.0519760434   -1.1804795164   -1.7495017391
C        0.1718113997   -2.5252711840   -1.8187964623
C       -0.2252845715   -3.4783871825   -2.8413467857
C        0.5495129114   -0.7630833423   -0.4966528530
C       -2.1869770389   -0.8869871745   -3.1139536788
C        0.6012321786    0.6229474332    0.0744253221
C       -0.8247768193   -0.3123968402   -2.7248563088
N        1.1047825967   -1.7904248257    0.0935591979
N        0.8860729557   -2.8729405894   -0.7059712785
O       -2.5059852754   -0.8394160979   -4.2913357945
O       -2.9734632458   -1.4185780124   -2.1453543385
S       -0.9040541626   -5.0346939348   -2.4109173784
H       -0.7717275818   -4.4555338200   -6.0237318569
H        0.1794619483   -2.3738348301   -4.6673739325
H       -1.5595164690   -6.3621106252   -4.4564213505
H       -0.2561633691    0.7770405345    0.7352069168
H        1.5173157962    0.7523815421    0.6578890115
H        0.5777403676    1.3714272393   -0.7209938851
H       -0.2245044460   -0.1662397816   -3.6267096582
H       -0.9998558737    0.6722966706   -2.2862526145
H        1.1946084349   -3.8223029666   -0.5069568137
H       -3.7605390710   -1.7710794666   -2.5902626917
25   

C       -0.6553781634   -4.4244846855   -4.9194952005
C       -0.0500986106   -3.3393005412   -4.1603902789
C       -1.2934524108   -5.3304382652   -4.1094876580
C       -0.0851654404   -1.1885578811   -1.7047054383
C        0.1652545316   -2.5261101571   -1.7853742145
C       -0.2430742693   -3.4791156316   -2.8092347801
C        0.5648899991   -0.7592373734   -0.4808648770
C       -2.2339841978   -0.9823966770   -3.0677945751
C        0.6093486336    0.6273008331    0.0891740052
C       -0.9081784039   -0.3418116515   -2.6571581494
N        1.1787203353   -1.7729836833    0.0753113911
N        0.9510404605   -2.8592106317   -0.7174584571
O       -2.5338991278   -0.9569700678   -4.2508776453
O       -3.0145796534   -1.5395438044   -2.1089840300
S       -1.1802111809   -4.9024618420   -2.4046294485
H       -0.6142866960   -4.4996447187   -6.0008592847
H        0.4752409854   -2.5034980664   -4.6086140354
H       -1.8143753332   -6.2101548205   -4.4695381074
H       -0.2069493000    0.7534149488    0.8055228136
H        1.5573429217    0.7858806296    0.6112301673
H        0.5089746831    1.3747534566   -0.7012446237
H       -0.3163996925   -0.1401645620   -3.5541428361
H       -1.1386296430    0.6192348636   -2.1921333517
H        1.2981775492   -3.7998132986   -0.5416483693
H       -3.7746138619   -1.9324516528   -2.5668445846
25   

C        0.3447733495   -4.9054893979   -4.5164016694
C        0.7839158763   -3.9109127962   -3.5472811842
C       -0.9431416602   -5.3199935491   -4.2835836228
C       -0.0651985096   -1.2857775782   -1.6174284111
C       -0.0743647676   -2.6433029655   -1.5445381946
C       -0.1865183346   -3.6273783162   -2.6204938810
C        0.0865233551   -0.8327896168   -0.2483335168
C       -1.6643990481   -0.0317087854   -3.0600369689
C        0.1711981944    0.5830710777    0.2386329740
C       -0.2078729288   -0.4374978632   -2.8597993513
N        0.1604221757   -1.8664578255    0.5519807898
N        0.0607877156   -2.9818403793   -0.2278357444
O       -2.3550353799   -0.6922176440   -3.8185125786
O       -2.1049506372    1.0804303758   -2.4207792411
S       -1.6624047406   -4.5246226429   -2.8858655048
H        0.9612375737   -5.2699502991   -5.3310587107
H        1.7591734803   -3.4374117817   -3.5569891551
H       -1.4699912743   -6.0492909866   -4.8880690788
H       -0.8070648449    0.8989608156    0.6106837615
H        0.8927421093    0.6529625817    1.0574351045
H        0.4754904881    1.2555024342   -0.5664623194
H        0.1381775191   -0.9887008697   -3.7383631193
H        0.4052902283    0.4628719623   -2.7745357916
H        0.0760537994   -3.9415366695    0.1113843103
H       -3.0442435671    1.1738074325   -2.6494816927
25   

C        0.4226286220   -5.0569382159   -4.4138530657
C        0.8776301147   -4.0990863235   -3.4153908869
C       -0.9374603882   -5.2395937662   -4.3719159649
C       -0.0961125916   -1.2652180160   -1.6427976083
C       -0.0346463348   -2.6213253610   -1.5858038933
C       -0.1577080707   -3.6046496031   -2.6641894282
C        0.0887819737   -0.8197982065   -0.2754141213
C       -1.7898163534   -0.0315027133   -2.9977241826
C        0.1312570754    0.5939664050    0.2226950983
C       -0.3189922216   -0.4150540176   -2.8717292145
N        0.2410034933   -1.8572824206    0.5092853269
N        0.1620425807   -2.9684091474   -0.2791674586
O       -2.5100270927   -0.7078273276   -3.7135566000
O       -2.2119386599    1.0801790321   -2.3454335397
S       -1.7084757157   -4.2621263553   -3.1254285048
H        1.0810877821   -5.5627550700   -5.1118192697
H        1.9115671860   -3.8017261596   -3.2808206400
H       -1.4869136761   -5.9035607386   -5.0292740109
H       -0.8451726489    0.8649678431    0.6329180163
H        0.8787770417    0.6875624802    1.0154105616
H        0.3772975023    1.2851225253   -0.5865420164
H       -0.0083532590   -0.9583513783   -3.7686341156
H        0.2837742648    0.4945712575   -2.8136900053
H        0.2253347789   -3.9300751078    0.0486606403
H       -3.1625636735    1.1600175117   -2.5277070082
25   

C        0.4695757678   -5.1489301212   -4.3321026552
C        0.9379915245   -4.2419763205   -3.2931323787
C       -0.8892583971   -5.0711617094   -4.5110066875
C       -0.0613181730   -1.1993717521   -1.6508968091
C        0.0518342948   -2.5536687109   -1.6459483201
C       -0.0855882678   -3.5146572122   -2.7404103529
C        0.1522351360   -0.7975989433   -0.2740813954
C       -1.8047704602    0.1400993069   -2.8445487845
C        0.1730415894    0.5989346074    0.2715802502
C       -0.3463746346   -0.3079349568   -2.8373822003
N        0.3598179821   -1.8566618986    0.4680338655
N        0.2913629935   -2.9412066502   -0.3573677540
O       -2.6261661233   -0.5546458305   -3.4197511961
O       -2.1072622995    1.3216571635   -2.2518264887
S       -1.6426438955   -3.8998472989   -3.4323913240
H        1.1187285191   -5.8082000382   -4.8983205837
H        1.9743067840   -4.1482943372   -2.9884062281
H       -1.4471141117   -5.6564949312   -5.2328717654
H       -0.7947013934    0.8275162551    0.7257713082
H        0.9464737679    0.6873342656    1.0396821176
H        0.3704171303    1.3236195842   -0.5217112400
H       -0.1280556093   -0.8376227663   -3.7689297160
H        0.2989717565    0.5735620152   -2.8038286893
H        0.3811765441   -3.9118507882   -0.0642899892
H       -3.0669052069    1.4372698174   -2.3478139224
25   

C        0.4826296980   -5.3084153135   -4.2436084947
C        0.9177361218   -4.4135037688   -3.1801207158
C       -0.8154494039   -5.0701244304   -4.6198518762
C       -0.1436386767   -1.2049341645   -1.7325191733
C        0.0481074229   -2.5516228068   -1.7314263656
C       -0.0657976036   -3.5310813951   -2.8070151948
C        0.1038522037   -0.7878724094   -0.3656103132
C       -1.9782995533    0.0967536735   -2.8384631653
C        0.0757558774    0.6098620008    0.1768722910
C       -0.5127603360   -0.3236120456   -2.9041489960
N        0.4021984504   -1.8306970634    0.3681815213
N        0.3619426056   -2.9196159270   -0.4526763577
O       -2.8173333597   -0.6276822999   -3.3475461893
O       -2.2703643881    1.2877083392   -2.2597813621
S       -1.5489598600   -3.7569852149   -3.7037401660
H        1.1108206521   -6.0741203633   -4.6860461489
H        1.9055950649   -4.4382885468   -2.7341151457
H       -1.3407399459   -5.6191273890   -5.3928902893
H       -0.8913089806    0.7983984768    0.6503578701
H        0.8606696756    0.7341069232    0.9282248247
H        0.2258101921    1.3397382989   -0.6220457686
H       -0.3303468186   -0.8491822630   -3.8455028704
H        0.1153323580    0.5709757694   -2.9057368207
H        0.5116669077   -3.8827989321   -0.1599998743
H       -3.2358911284    1.3835326319   -2.3059641923
25   

C        0.4289959421   -5.3835418443   -4.1580138081
C        0.8319369241   -4.5309443956   -3.0482790992
C       -0.7595065631   -4.9813987038   -4.7124255797
C       -0.1695538049   -1.1865964418   -1.7345985083
C        0.0471562907   -2.5318163785   -1.7475490235
C       -0.0642518194   -3.5151654338   -2.8149111295
C        0.1262529251   -0.7696866743   -0.3766756853
C       -2.0532920820    0.1034438702   -2.7759924400
C        0.0955240969    0.6245175118    0.1755290381
C       -0.5823434846   -0.2899308857   -2.8809022074
N        0.4781597663   -1.8076754428    0.3389812318
N        0.4271625913   -2.8934135373   -0.4843544963
O       -2.8904910654   -0.6200535593   -3.2892566897
O       -2.3530493737    1.2734374028   -2.1598052441
S       -1.4246197594   -3.5612485323   -3.9121438484
H        1.0016391056   -6.2365736554   -4.5060282630
H        1.7416942584   -4.6783018486   -2.4777236011
H       -1.2438936463   -5.4721109438   -5.5487785032
H       -0.8577533142    0.7956089843    0.6823542272
H        0.9034265883    0.7563373552    0.9008086263
H        0.2079135429    1.3620689698   -0.6224158911
H       -0.4065280986   -0.7882677681   -3.8376707188
H        0.0281436401    0.6166859022   -2.8774917296
H        0.6075951475   -3.8533741506   -0.1993935511
H       -3.3206605342    1.3547100899   -2.1856782656
25   

C        0.3499866574   -5.5242430022   -4.0281322720
C        0.7156299772   -4.7020681589   -2.8833153584
C       -0.6915301563   -4.9853380444   -4.7381248623
C       -0.1709560606   -1.2278034495   -1.7090057630
C        0.0586208840   -2.5741769656   -1.7235764376
C       -0.0622613307   -3.5717850708   -2.7735952807
C        0.1842476720   -0.7975560139   -0.3684258259
C       -2.1184998680   -0.0141094066   -2.7294785628
C        0.1622644055    0.5973243627    0.1839635625
C       -0.6276453044   -0.3233464590   -2.8341772192
N        0.5869660307   -1.8244130916    0.3348427461
N        0.5128497887   -2.9150700743   -0.4784448804
O       -2.8989668571   -0.6568441858   -3.4118714871
O       -2.4966879070    1.0093046064   -1.9242448274
S       -1.2585428709   -3.4707282767   -4.0443674109
H        0.8447475764   -6.4533074729   -4.2903570654
H        1.5234341301   -4.9541374545   -2.2065938246
H       -1.1244969008   -5.4299255224   -5.6268316617
H       -0.7720489868    0.7595398436    0.7276705582
H        0.9966048265    0.7374130659    0.8770734551
H        0.2362417336    1.3368638136   -0.6162695396
H       -0.4109469615   -0.7762415868   -3.8044644498
H       -0.0727455064    0.6172872015   -2.8000552260
H        0.7255568501   -3.8681220576   -0.1939178234
H       -3.4651590819    1.0568516050   -1.9799315002
25   

C        0.2483370180   -5.5580700029   -3.9438294236
C        0.5597996155   -4.7613142676   -2.7656147720
C       -0.5826573989   -4.8959809679   -4.8088590103
C       -0.1655701765   -1.1641784988   -1.7355226444
C        0.0805820470   -2.5119024531   -1.7486288515
C       -0.0484109165   -3.5247645405   -2.7823181867
C        0.2565600276   -0.7126325856   -0.4206926838
C       -2.1823134927   -0.0900730817   -2.8010808606
C        0.2196121573    0.6811457033    0.1344916707
C       -0.6641901739   -0.2516739405   -2.8384338454
N        0.6918598212   -1.7269031736    0.2787659872
N        0.5803054097   -2.8282187828   -0.5133892106
O       -2.8507640853   -0.6446094331   -3.6575475155
O       -2.7094582623    0.7228151212   -1.8522770043
S       -1.0115589043   -3.2936300283   -4.2235161091
H        0.6313465113   -6.5577760747   -4.1187603359
H        1.2142558391   -5.1135146368   -1.9778608460
H       -0.9409519064   -5.3005997661   -5.7484438369
H       -0.4890077780    1.3051806716   -0.4138241115
H       -0.0727720392    0.6537295464    1.1878841868
H        1.2145426505    1.1284965675    0.0636495833
H       -0.3516750267   -0.6230415737   -3.8168747471
H       -0.2111719446    0.7367049344   -2.7279365361
H        0.8162822934   -3.7734648885   -0.2229346060
H       -3.6720842481    0.7036467571   -1.9782099910
25   

C       -0.0648612648   -5.5860442688   -3.8258174626
C        0.2704506320   -4.7888433473   -2.6543593017
C       -0.6406839939   -4.8328146560   -4.8148301667
C       -0.1093276713   -1.0691088907   -1.8209780811
C        0.1480848970   -2.4163602019   -1.8128005747
C       -0.0644025025   -3.4598964839   -2.8006841530
C        0.3577095759   -0.5803295218   -0.5365142988
C       -2.2259557514   -0.2022177942   -2.9028542099
C        0.2743363452    0.8205817157   -0.0054736930
C       -0.6986638857   -0.1858311909   -2.9045403213
N        0.8473959335   -1.5685533620    0.1632241083
N        0.7210570988   -2.6890629221   -0.5991937953
O       -2.8016593232   -0.3416790525   -3.9696037625
O       -2.8701064220   -0.0368766389   -1.7201176116
S       -0.7934678379   -3.1411661547   -4.3581899463
H        0.1194975626   -6.6519431998   -3.9072173925
H        0.7346318757   -5.2142253295   -1.7734963267
H       -0.9688620579   -5.2219427039   -5.7718525836
H       -0.5742722463    1.3505964623   -0.4449387270
H        0.1537450093    0.8009598597    1.0814274176
H        1.1952842651    1.3587924186   -0.2445714390
H       -0.3208574627   -0.4825924578   -3.8851662004
H       -0.3738947907    0.8463313962   -2.7551828292
H        1.0139781155   -3.6171752697   -0.3065508228
H       -3.8199846269   -0.0928819701   -1.9117349999
