45   

C       -2.7926436103   -1.1499851491   -0.8874510714
C       -1.7908691402   -0.1097955747   -0.6153852621
C       -0.6460822022   -0.6448740895   -0.0525815372
C       -4.0938192986   -0.9901784939   -1.5270878418
C       -2.3850436235   -2.3895686037   -0.5046181430
C       -4.4824332266   -3.3174969234   -1.2264756657
C       -7.2922861034   -1.8417457363   -1.0625456904
C       -7.9017777202   -0.7340216601   -0.6047004323
C       -2.0295357202    1.3570897057   -0.8871297566
C       -8.6139601185   -0.7484001083    0.7275725271
C       -7.7940173043    0.5871167957   -1.3289488890
C       -0.5642990484   -5.5979684835   -3.2133627391
C        0.6034623351    0.0771004929    0.3753703912
C       -6.2911451490   -1.9302288140   -2.1857226981
C       -2.7649039072   -4.8454092939   -0.2952147196
C       -2.2262245068   -5.6265986606   -1.4943192566
N       -4.9487980244   -2.0732063580   -1.6220291490
N       -3.2132958244   -3.5045449777   -0.6797369188
O       -4.4042565029    0.0810146099   -2.0286900990
O       -5.2124395053   -4.2935003094   -1.3587830333
O        1.7100221854   -0.4734968564   -0.3364598740
O       -1.0690442585   -4.9743417205   -2.0297546995
S       -0.7641636452   -2.3896926460    0.1806363584
H       -7.4694798091   -2.7711997572   -0.5320106646
H       -3.0136652363    1.6508637863   -0.5100621020
H       -1.2916024151    1.9942828136   -0.3971822254
H       -1.9995360062    1.5446151625   -1.9645202382
H       -8.2940294379    0.1014896644    1.3381820214
H       -9.6950701180   -0.6837407468    0.5723204254
H       -8.3949124566   -1.6660918888    1.2822047531
H       -8.4351782029    0.5796688604   -2.2149266090
H       -8.1152986398    1.4082877978   -0.6815219977
H       -6.7679165548    0.7968684255   -1.6336381001
H        0.3495024572   -5.0892903438   -3.5350827491
H       -1.3004995376   -5.5360180354   -4.0210103845
H       -0.3279294324   -6.6497145730   -3.0227262760
H        0.5395114055    1.1475660515    0.1690885114
H        0.7550168676   -0.0524449166    1.4516297980
H       -6.3598480214   -1.0607435121   -2.8472860633
H       -6.5293002625   -2.7945215887   -2.8157498033
H       -3.5995952981   -5.4000855234    0.1460843925
H       -1.9935367625   -4.7930668438    0.4778064737
H       -3.0052406829   -5.7082339639   -2.2598923642
H       -1.9586978596   -6.6372637265   -1.1700110722
H        1.4974918778   -0.5482086620   -1.2841586157
45   

C       -2.8771435956   -1.2079528742   -0.8729150464
C       -1.8975154584   -0.1583255601   -0.5578504406
C       -0.7674102810   -0.6850070743    0.0414865446
C       -4.1809305892   -1.0536212524   -1.5105972212
C       -2.4588656374   -2.4479087846   -0.5004023420
C       -4.5151733444   -3.4016152911   -1.3008084236
C       -7.3296439464   -1.9005556582   -1.1261654184
C       -7.8734741803   -0.7660393769   -0.6482644156
C       -2.1236404298    1.3028703248   -0.8677170323
C       -8.2849444352   -0.6582940078    0.8009652283
C       -7.8854256018    0.4963422937   -1.4745201627
C       -0.5074554669   -5.5904209652   -3.1988819307
C        0.4543299016    0.0428481008    0.5313737179
C       -6.3334065207   -2.0220733350   -2.2529780626
C       -2.8026749327   -4.9132105803   -0.3361207172
C       -2.2169948875   -5.6694012256   -1.5291171555
N       -4.9958130509   -2.1582010314   -1.6797193379
N       -3.2617844833   -3.5743929022   -0.7155011540
O       -4.5469273294    0.0424858252   -1.9119104250
O       -5.2216562221   -4.3881602416   -1.4748135082
O        1.5479748720   -0.2982356336   -0.3181314155
O       -1.0561264589   -4.9910813224   -2.0222934920
S       -0.8630174914   -2.4340768977    0.2410778926
H       -7.4544674619   -2.8005478204   -0.5336530211
H       -2.9663644521    1.6788670746   -0.2796337310
H       -1.2470083628    1.9145253312   -0.6487291386
H       -2.3574266318    1.4272150982   -1.9291785450
H       -7.9384750191    0.2900339411    1.2230207532
H       -9.3748600710   -0.7033010369    0.8835121631
H       -7.8537964262   -1.4725039443    1.3915643897
H       -8.6736578439    1.1689232944   -1.1230491076
H       -6.9270378735    1.0156663424   -1.3869941098
H       -8.0810338950    0.2745256965   -2.5274962735
H        0.4057364675   -5.0617226400   -3.4884386253
H       -1.2218314674   -5.5310165623   -4.0260899844
H       -0.2578108539   -6.6402482486   -3.0146964337
H        0.3054444504    1.1248920592    0.5240907266
H        0.6765470504   -0.2557651127    1.5607001669
H       -6.3857798981   -1.1591514217   -2.9244283971
H       -6.5802826603   -2.8936746867   -2.8693854076
H       -3.6407761179   -5.4869857783    0.0731513016
H       -2.0550486360   -4.8597394298    0.4597608897
H       -2.9722268953   -5.7534702258   -2.3178983195
H       -1.9420650496   -6.6798334808   -1.2103260091
H        1.2708369944   -0.2766743323   -1.2515809264
45   

C       -2.9296985092   -1.2410499728   -0.8746417448
C       -1.9657338353   -0.1866828794   -0.5285132261
C       -0.8401101391   -0.7111208120    0.0811019482
C       -4.2265304147   -1.0898507204   -1.5271467858
C       -2.5046518846   -2.4822967439   -0.5139915588
C       -4.5380636631   -3.4447872869   -1.3608356548
C       -7.3522931982   -1.9263558098   -1.1733119564
C       -7.8220156806   -0.7752251964   -0.6518178656
C       -2.1992694257    1.2766407524   -0.8224368270
C       -7.9168183328   -0.5734496941    0.8415170302
C       -7.9534358158    0.4504864744   -1.5211715477
C       -0.4828603940   -5.5736123887   -3.2189396849
C        0.3661660110    0.0216467829    0.6010434525
C       -6.3611734221   -2.0661127679   -2.3058903756
C       -2.8285695285   -4.9525033709   -0.3851637795
C       -2.2166152313   -5.6897874878   -1.5766635094
N       -5.0245621719   -2.2009924091   -1.7303614006
N       -3.2928656080   -3.6134416162   -0.7573125894
O       -4.6045148116    0.0106630616   -1.9048588575
O       -5.2333961978   -4.4350108751   -1.5568058173
O        1.4777937517   -0.2998830714   -0.2326074887
O       -1.0539536880   -4.9954304081   -2.0424827961
S       -0.9210162610   -2.4638242111    0.2530758874
H       -7.4364800298   -2.8122775246   -0.5531305079
H       -3.0417948495    1.6428054563   -0.2279186349
H       -1.3240315801    1.8893196420   -0.6005604370
H       -2.4363539043    1.4115554935   -1.8818457522
H       -7.4736838905    0.3866926914    1.1230033539
H       -8.9652037500   -0.5828652642    1.1535655444
H       -7.3837644693   -1.3657949779    1.3759192827
H       -8.7718571258    1.0796848838   -1.1585354591
H       -7.0290726092    1.0349460236   -1.4932636797
H       -8.1734373761    0.1772351188   -2.5572817824
H        0.4294176850   -5.0326640759   -3.4880059406
H       -1.1857818413   -5.5094618547   -4.0555540349
H       -0.2261510443   -6.6235184742   -3.0452479713
H        0.2075471450    1.1023522428    0.6036703380
H        0.5727509043   -0.2870527462    1.6306500981
H       -6.4095032116   -1.2048818684   -2.9802400155
H       -6.6154181055   -2.9403436679   -2.9155232807
H       -3.6683154698   -5.5380803229    0.0035337743
H       -2.0947963531   -4.9017800746    0.4236872283
H       -2.9579905293   -5.7713564955   -2.3787467634
H       -1.9378684789   -6.7013502000   -1.2648635942
H        1.2170561617   -0.2704653104   -1.1705569991
45   

C       -2.9899624207   -1.2518461719   -0.8589241289
C       -2.0435694194   -0.1884958027   -0.4924342996
C       -0.9195759104   -0.7036451882    0.1280005828
C       -4.2837186025   -1.1115990376   -1.5203355155
C       -2.5528920573   -2.4906619490   -0.5034086886
C       -4.5595245421   -3.4740654417   -1.3883603319
C       -7.3797965378   -1.9313141983   -1.2037020041
C       -7.7810164913   -0.7606775121   -0.6586433069
C       -2.2865788968    1.2738569691   -0.7830570522
C       -7.5627591681   -0.4541455488    0.8034938741
C       -8.1056436554    0.4064015571   -1.5584969583
C       -0.4629263369   -5.5484238532   -3.1979936666
C        0.2703276186    0.0404800197    0.6690029738
C       -6.3914154749   -2.1092003013   -2.3367333142
C       -2.8489756791   -4.9655062049   -0.3906425588
C       -2.2130286031   -5.6925653155   -1.5757352500
N       -5.0570045171   -2.2340225066   -1.7551681205
N       -3.3225777015   -3.6303699782   -0.7653387607
O       -4.6873762140   -0.0092168942   -1.8659258723
O       -5.2391957562   -4.4715957798   -1.6008867894
O        1.3982695565   -0.2652189180   -0.1485753558
O       -1.0523444635   -4.9836291387   -2.0241112884
S       -0.9799132164   -2.4584785330    0.2846632502
H       -7.4137951275   -2.7914834122   -0.5438705131
H       -3.1178295065    1.6388184789   -0.1722159080
H       -1.4073027032    1.8876819089   -0.5806880375
H       -2.5442548991    1.4079636964   -1.8377109931
H       -6.4924371796   -0.4711479884    1.0304380956
H       -7.9576672422    0.5342209996    1.0576448406
H       -8.0677596329   -1.2002764844    1.4239596406
H       -9.0873010014    0.8133161404   -1.2984952856
H       -7.3545610162    1.1933514398   -1.4353513591
H       -8.1309535825    0.1107940720   -2.6110587951
H        0.4456418551   -4.9954511575   -3.4548506171
H       -1.1581860615   -5.4876211597   -4.0412416575
H       -0.1958919129   -6.5962790839   -3.0275351229
H        0.0990229371    1.1192976706    0.6734844874
H        0.4646373917   -0.2701041390    1.7004403318
H       -6.4311293217   -1.2612726457   -3.0282870284
H       -6.6534317994   -2.9950948576   -2.9258654733
H       -3.6876936315   -5.5611671930   -0.0152178398
H       -2.1269260923   -4.9095532440    0.4283411515
H       -2.9427751853   -5.7803568111   -2.3877698541
H       -1.9269412260   -6.7017649079   -1.2629347436
H        1.1516035592   -0.2361468086   -1.0903241130
45   

C       -3.0264576923   -1.2597712565   -0.8632989326
C       -2.0901765021   -0.1928211541   -0.4817225487
C       -0.9732237590   -0.7037776497    0.1549648779
C       -4.3108373338   -1.1245785318   -1.5440716652
C       -2.5893911450   -2.4969894441   -0.5021126855
C       -4.5796357704   -3.4880502930   -1.4140276428
C       -7.4066680982   -1.9621556499   -1.2489227611
C       -7.7223388319   -0.8104249921   -0.6036181701
C       -2.3372450001    1.2684916148   -0.7738805406
C       -7.2294656337   -0.5097572625    0.7919206408
C       -8.1100562054    0.3874100250   -1.4390584379
C       -0.4575386244   -5.5391164830   -3.1804926855
C        0.2058519170    0.0438198596    0.7149344247
C       -6.4077186245   -2.1315629033   -2.3786375390
C       -2.8753937347   -4.9735437777   -0.3971336367
C       -2.2228422453   -5.6960052189   -1.5760158538
N       -5.0767405581   -2.2500133294   -1.7880887672
N       -3.3502124175   -3.6398132125   -0.7755145673
O       -4.7135706747   -0.0240334665   -1.8967437999
O       -5.2531356020   -4.4881853507   -1.6341048084
O        1.3541365195   -0.2816222589   -0.0659324446
O       -1.0604222976   -4.9810901338   -2.0102084148
S       -1.0284827240   -2.4590477471    0.3090290423
H       -7.4806068109   -2.8613671395   -0.6469601678
H       -3.1842230095    1.6258109287   -0.1803834366
H       -1.4674371452    1.8884273406   -0.5506726783
H       -2.5731170036    1.4031660082   -1.8335700303
H       -6.6253890599    0.4026096151    0.8004339339
H       -8.0792676379   -0.3787019582    1.4679654838
H       -6.6088635552   -1.3303774750    1.1646034518
H       -9.1484142254    0.6603427706   -1.2296588228
H       -7.4696351776    1.2442508767   -1.2072501541
H       -8.0233310170    0.1814499933   -2.5094379530
H        0.4513748163   -4.9817551086   -3.4263982664
H       -1.1448103727   -5.4776340434   -4.0302192321
H       -0.1882268639   -6.5866250447   -3.0114914417
H        0.0411931846    1.1234218800    0.6964544009
H        0.3704423848   -0.2502662565    1.7563367882
H       -6.4512986621   -1.2824785182   -3.0686261764
H       -6.6593816858   -3.0186323981   -2.9705405265
H       -3.7158642660   -5.5733274508   -0.0323148553
H       -2.1630364072   -4.9159698862    0.4301646725
H       -2.9429980662   -5.7859065263   -2.3963501918
H       -1.9357051593   -6.7043858008   -1.2615346377
H        1.1346167979   -0.2633683774   -1.0146600692
45   

C       -3.0643897904   -1.2257905292   -0.9198450216
C       -2.1359520174   -0.1560975841   -0.5272489996
C       -1.0379021872   -0.6609880843    0.1463753668
C       -4.3300173610   -1.0970021707   -1.6364420552
C       -2.6403597479   -2.4589856012   -0.5302199079
C       -4.6088139484   -3.4577120800   -1.4789788191
C       -7.4436038697   -1.9519709347   -1.3959383502
C       -7.6799501561   -0.8742902265   -0.5961909169
C       -2.3731846994    1.3013597518   -0.8451964786
C       -6.9845601792   -0.6726639680    0.7301888047
C       -8.1602867707    0.3829326090   -1.2812420342
C       -0.4492734457   -5.5334446260   -3.1209437111
C        0.1280107471    0.0904490128    0.7286862514
C       -6.4111635456   -2.1132073830   -2.5014135988
C       -2.9330121531   -4.9339555028   -0.4033198264
C       -2.2529785713   -5.6704732915   -1.5578146412
N       -5.0927690265   -2.2237397463   -1.8826011415
N       -3.3962265413   -3.6038358639   -0.8081419519
O       -4.7222815980   -0.0006560649   -2.0131170121
O       -5.2786932798   -4.4595173639   -1.7031901649
O        1.3025933307   -0.2747157974    0.0066390306
O       -1.0791105545   -4.9620704627   -1.9714554638
S       -1.1020010882   -2.4139404212    0.3221999131
H       -7.6311543523   -2.9068640277   -0.9170917461
H       -3.2391674850    1.6655423623   -0.2841999404
H       -1.5115134491    1.9246285653   -0.6010135626
H       -2.5744984110    1.4225355655   -1.9136293275
H       -6.3379084307    0.2096381280    0.6988446245
H       -7.7251493257   -0.5433391741    1.5246680190
H       -6.3627470094   -1.5404478158    0.9704568103
H       -9.2265433407    0.5264410453   -1.0842690317
H       -7.6174589694    1.2605354547   -0.9166440481
H       -8.0126950027    0.3261844251   -2.3640180443
H        0.4667665296   -4.9806972609   -3.3502615929
H       -1.1154514787   -5.4790973531   -3.9877848107
H       -0.1867781793   -6.5797817562   -2.9348112817
H       -0.0203642979    1.1707906861    0.6684243146
H        0.2465775467   -0.1713441759    1.7848677539
H       -6.4547787727   -1.2612472006   -3.1887282308
H       -6.6391561034   -3.0023977248   -3.0997715207
H       -3.7831657320   -5.5285121305   -0.0526273170
H       -2.2410722524   -4.8682677136    0.4405199513
H       -2.9529995542   -5.7686108507   -2.3944794993
H       -1.9752633242   -6.6756932879   -1.2252510962
H        1.1232551329   -0.2807366318   -0.9506661604
45   

C       -2.7033819332   -1.0285848431   -0.3954020639
C       -1.6189880582   -0.0396298727   -0.3159923377
C       -0.4350769512   -0.6195356493    0.1036926490
C       -4.0891849556   -0.8088752660   -0.7992456014
C       -2.3016452661   -2.2794319911   -0.0400023603
C       -4.5155390634   -3.1244291803   -0.4396174758
C       -7.2667905037   -1.3441393991   -0.1030883946
C       -8.4009235497   -0.5940718594   -0.1939306861
C       -1.8027803533    1.4173234527   -0.6697637352
C       -9.7661127209   -1.1833961121   -0.4744361635
C       -8.2240146432    0.8724063300   -0.5066846352
C       -1.0054431892   -5.6638223483   -2.8638736270
C        0.8979871547    0.0391718773    0.3307526329
C       -6.3512485593   -1.6852881003   -1.2584106772
C       -2.7559540895   -4.7101648915    0.2938007913
C       -2.4286499270   -5.5446599005   -0.9458519653
N       -4.9789183493   -1.8671441731   -0.7942324804
N       -3.1950589084   -3.3570538998   -0.0587515638
O       -4.4640878253    0.2991510500   -1.1589614792
O       -5.2956226812   -4.0698990710   -0.4562274419
O        1.8062165862   -0.4331645843   -0.6624276459
O       -1.3319797151   -4.9634626223   -1.6604578832
S       -0.6019495954   -2.3476085587    0.4100552170
H       -7.3531324363   -2.1943042879    0.5647670928
H       -2.4878737437    1.8869105939    0.0425451426
H       -0.8608761009    1.9681142356   -0.6625498258
H       -2.2296253550    1.5062885972   -1.6731622501
H      -10.5082391737   -0.3991805359   -0.6525002419
H       -9.7204832801   -1.8299698182   -1.3558965372
H      -10.0953125948   -1.7805623272    0.3810236202
H       -8.8928974344    1.1793417742   -1.3168542120
H       -8.4469517044    1.4716330753    0.3805682495
H       -7.1970356310    1.0887024924   -0.8192355071
H       -0.1193090876   -5.2139049420   -3.3217741331
H       -1.8341507137   -5.6046503998   -3.5765105861
H       -0.7898409170   -6.7157850508   -2.6508513507
H        0.8218037080    1.1272320000    0.2731907712
H        1.2724292165   -0.2161967951    1.3270717430
H       -6.4065805280   -0.9026141695   -2.0233420764
H       -6.7132474484   -2.5969624072   -1.7466493320
H       -3.5435096032   -5.2140739064    0.8638449001
H       -1.8811511687   -4.6789583683    0.9487446055
H       -3.3112120034   -5.6069030733   -1.5914131194
H       -2.1637785468   -6.5593304650   -0.6318038647
H        1.3776666750   -0.4402037348   -1.5369669581
45   

C       -2.7104569577   -1.0484570888   -0.4347691287
C       -1.6316846530   -0.0549122302   -0.3372386636
C       -0.4514885078   -0.6305992683    0.0984808055
C       -4.0903568996   -0.8341956157   -0.8610888845
C       -2.3088270459   -2.2981394982   -0.0755787034
C       -4.5139069341   -3.1507795875   -0.5069204623
C       -7.2821257198   -1.4247477250   -0.2036384064
C       -8.3521866338   -0.5912627550   -0.2664945321
C       -1.8180532218    1.4024196065   -0.6882164044
C       -9.7753604488   -1.0971456640   -0.3293707029
C       -8.1215160428    0.8359864102   -0.7029112714
C       -0.9683641322   -5.6645360150   -2.8986297005
C        0.8753527285    0.0331151847    0.3467669963
C       -6.3444621395   -1.7197311094   -1.3495399044
C       -2.7572455744   -4.7317762005    0.2437249583
C       -2.4118223625   -5.5604450112   -0.9949494561
N       -4.9775132075   -1.8947490161   -0.8661766661
N       -3.1975399330   -3.3792044405   -0.1094017240
O       -4.4605385494    0.2707524072   -1.2344515973
O       -5.2895933609   -4.0996477227   -0.5363592800
O        1.8007745568   -0.4348063274   -0.6325262400
O       -1.3091852981   -4.9722283729   -1.6944995376
S       -0.6155366015   -2.3600220454    0.3989382945
H       -7.4298545439   -2.3045647247    0.4132717192
H       -2.5268261304    1.8621424798    0.0071731063
H       -0.8819001731    1.9616634340   -0.6510540186
H       -2.2177720548    1.4930601966   -1.7025907921
H      -10.4826448510   -0.2688519131   -0.4355240519
H       -9.8948836993   -1.7722740133   -1.1820320852
H      -10.0182087911   -1.6426811588    0.5873153097
H       -8.7824356588    1.0923849667   -1.5368329156
H       -8.3268281822    1.5150054481    0.1295934348
H       -7.0883571123    0.9970029431   -1.0250625736
H       -0.0786555415   -5.2097098528   -3.3445940285
H       -1.7897494116   -5.6031329088   -3.6195124606
H       -0.7523559476   -6.7172309159   -2.6896714354
H        0.7961290778    1.1209049357    0.2888132750
H        1.2352453832   -0.2216559175    1.3485847013
H       -6.3988479329   -0.9263273586   -2.1029499039
H       -6.6822990471   -2.6273933816   -1.8619967740
H       -3.5495300608   -5.2408038383    0.8025479221
H       -1.8904035428   -4.6994718798    0.9091078627
H       -3.2864470409   -5.6240247697   -1.6511000932
H       -2.1464410020   -6.5751439191   -0.6814394116
H        1.3862896361   -0.4415421287   -1.5138255585
45   

C       -2.7442719177   -1.0450148635   -0.4306134079
C       -1.6735325659   -0.0445501286   -0.3154756675
C       -0.5006771257   -0.6103257262    0.1519089424
C       -4.1136257504   -0.8421583696   -0.8943599653
C       -2.3450126488   -2.2893760019   -0.0516393176
C       -4.5359157097   -3.1562527094   -0.5261917857
C       -7.3268703128   -1.5100313932   -0.2841902109
C       -8.3277996070   -0.6008733767   -0.2881335321
C       -1.8613991645    1.4096699475   -0.6787174598
C       -9.7770317908   -0.9995108564   -0.1330395164
C       -8.0563000931    0.7997760369   -0.7809507482
C       -0.9333306655   -5.6570703250   -2.8309635187
C        0.8167151094    0.0622737121    0.4257236477
C       -6.3571727435   -1.7427652317   -1.4155981647
C       -2.7876774128   -4.7230831589    0.2725058967
C       -2.4114273677   -5.5564912472   -0.9539118544
N       -4.9981057652   -1.9052218472   -0.9045801291
N       -3.2274438137   -3.3750715388   -0.0979773753
O       -4.4743081922    0.2548202707   -1.2985330752
O       -5.3052963076   -4.1098764793   -0.5678787151
O        1.7673139271   -0.4094257546   -0.5272721632
O       -1.2977521605   -4.9654926690   -1.6333668762
S       -0.6628476177   -2.3382148102    0.4625031955
H       -7.5214317675   -2.4140149012    0.2829147119
H       -2.6038142065    1.8632075349   -0.0150686581
H       -0.9345811583    1.9803927540   -0.6032884045
H       -2.2197098323    1.4925626092   -1.7091191275
H      -10.4254036249   -0.1179478696   -0.1254381306
H      -10.0768264405   -1.6476877577   -0.9619267667
H       -9.9187924757   -1.5413920170    0.8067963704
H       -8.5969219921    0.9810460071   -1.7151189659
H       -8.3910872283    1.5267684385   -0.0351772302
H       -6.9900695791    0.9669273959   -0.9564086793
H       -0.0391559328   -5.1975162903   -3.2629255077
H       -1.7431679744   -5.6013276651   -3.5652567154
H       -0.7146469248   -6.7082186341   -2.6171035648
H        0.7340217313    1.1490880921    0.3561772630
H        1.1540066664   -0.1819452203    1.4379746583
H       -6.4133475534   -0.9295939439   -2.1472986109
H       -6.6593569727   -2.6425453784   -1.9630752439
H       -3.5890128824   -5.2332148458    0.8172246449
H       -1.9353565049   -4.6822099695    0.9559335423
H       -3.2717361058   -5.6289115450   -1.6278373287
H       -2.1466495854   -6.5678192330   -0.6292485013
H        1.3742918270   -0.4244044236   -1.4182593425
45   

C       -2.7081054467   -1.1038397890   -0.5708652871
C       -1.6417111296   -0.1034489260   -0.4203796149
C       -0.4801141443   -0.6723208388    0.0706502890
C       -4.0663947254   -0.8978095398   -1.0647015686
C       -2.3167739337   -2.3512629306   -0.1935407842
C       -4.4951247089   -3.2154861825   -0.7271565148
C       -7.2849762164   -1.6028919288   -0.5073886239
C       -8.2142093244   -0.6281207268   -0.4328694689
C       -1.8215110180    1.3538438944   -0.7752918804
C       -9.6361699694   -0.9280679397   -0.0197569185
C       -7.9076595754    0.7461446364   -0.9755090168
C       -0.8510907803   -5.6920545798   -2.9762448098
C        0.8289414017   -0.0005344980    0.3833609843
C       -6.3013169311   -1.7928653341   -1.6318915110
C       -2.7651155897   -4.7880179908    0.0991129063
C       -2.3628201395   -5.6118013510   -1.1254364349
N       -4.9497223817   -1.9611648515   -1.1035394615
N       -3.1968050697   -3.4372031867   -0.2705319177
O       -4.4185237597    0.2025273795   -1.4674937147
O       -5.2623673786   -4.1692886510   -0.7959767380
O        1.8009373439   -0.4540963639   -0.5567335170
O       -1.2353036516   -5.0151378235   -1.7764873353
S       -0.6475764716   -2.4031912901    0.3610215619
H       -7.5035215647   -2.5165036431    0.0350766734
H       -2.5759263802    1.8027552322   -0.1221164174
H       -0.8955658432    1.9227448339   -0.6780751981
H       -2.1600364783    1.4456025739   -1.8116041520
H      -10.1883842844   -0.0060296142    0.1851231186
H      -10.1487233471   -1.4722186625   -0.8186582042
H       -9.6452824162   -1.5420292491    0.8859495121
H       -8.1182307620    0.7815780368   -2.0486275910
H       -8.5179407902    1.5037976574   -0.4752373926
H       -6.8568519331    1.0012593522   -0.8112808142
H        0.0501638002   -5.2274903619   -3.3876249616
H       -1.6485929629   -5.6271492076   -3.7231886230
H       -0.6361404862   -6.7457859659   -2.7715330645
H        0.7439598983    1.0870360800    0.3296170473
H        1.1454461956   -0.2599868670    1.3985335135
H       -6.3515867691   -0.9571114349   -2.3379694237
H       -6.5879396380   -2.6778987448   -2.2108747567
H       -3.5780040720   -5.3020963482    0.6225966255
H       -1.9275478915   -4.7526539753    0.8008307878
H       -3.2087683003   -5.6792247026   -1.8178165362
H       -2.1044477356   -6.6255420489   -0.8031800320
H        1.4262738317   -0.4577239200   -1.4557098610
45   

C       -2.7143945511   -1.1471650102   -0.6605442214
C       -1.6589898675   -0.1404845154   -0.4776800168
C       -0.5063718658   -0.7043240364    0.0394767758
C       -4.0616626219   -0.9471484481   -1.1859039896
C       -2.3241190318   -2.3940945987   -0.2805953177
C       -4.4820644195   -3.2700192003   -0.8750355093
C       -7.2827707336   -1.7144298619   -0.6877526828
C       -8.1476402178   -0.6959022256   -0.5233769872
C       -1.8384454308    1.3175092312   -0.8299953657
C       -9.4861390029   -0.9135484976    0.1424298470
C       -7.9008522946    0.6381742721   -1.1836144107
C       -0.7784095156   -5.7055187351   -3.0506936482
C        0.7894939489   -0.0251130464    0.3887164954
C       -6.2804994148   -1.8518735650   -1.8024154655
C       -2.7636610422   -4.8351512832   -0.0117853337
C       -2.3271409029   -5.6506360725   -1.2300253948
N       -4.9364274210   -2.0162468190   -1.2534093669
N       -3.1945156336   -3.4854072551   -0.3860383466
O       -4.4115447311    0.1538745716   -1.5886124381
O       -5.2401099985   -4.2288908701   -0.9703525210
O        1.7851419668   -0.4577334937   -0.5363511664
O       -1.1885223168   -5.0434333333   -1.8512850789
S       -0.6691180717   -2.4379193200    0.3157730810
H       -7.4835174237   -2.6303944561   -0.1424268357
H       -2.6066078011    1.7606619296   -0.1890262789
H       -0.9165897261    1.8895663244   -0.7138820180
H       -2.1580303927    1.4123033074   -1.8720224752
H       -9.4776383293   -0.4780478421    1.1460070802
H      -10.2813532178   -0.4389150859   -0.4404936464
H       -9.7140894859   -1.9806881569    0.2255662389
H       -8.1135722538    0.5771394367   -2.2549455254
H       -8.5461881948    1.4056851225   -0.7457536033
H       -6.8631830512    0.9523280616   -1.0403675539
H        0.1277913283   -5.2318848202   -3.4402669705
H       -1.5622102888   -5.6369007977   -3.8116867446
H       -0.5616662185   -6.7601997569   -2.8529259044
H        0.6953616230    1.0622822554    0.3471707351
H        1.0868457861   -0.2947915661    1.4070087020
H       -6.3285452167   -0.9986366944   -2.4866709142
H       -6.5426271116   -2.7240629144   -2.4116965931
H       -3.5858239416   -5.3563642200    0.4897048203
H       -1.9433712606   -4.7979595562    0.7099593736
H       -3.1560903313   -5.7203855102   -1.9424551198
H       -2.0696359622   -6.6641236473   -0.9063381816
H        1.4288811681   -0.4550601588   -1.4427782275
45   

C       -2.7636110056   -1.1332152247   -0.6899373304
C       -1.7149827985   -0.1237417664   -0.4845716044
C       -0.5802496608   -0.6805446075    0.0777985883
C       -4.0913269300   -0.9407544152   -1.2651647048
C       -2.3869816347   -2.3747660103   -0.2803362257
C       -4.5258832827   -3.2573944750   -0.9316242939
C       -7.3275325407   -1.7459217937   -0.8162425047
C       -8.1083718024   -0.6834408693   -0.5526333103
C       -1.8847130423    1.3302103925   -0.8580087846
C       -9.3150390816   -0.8215869331    0.3455696523
C       -7.8784863627    0.6453547522   -1.2301239844
C       -0.7604528726   -5.7107447365   -2.9649029970
C        0.7035549076    0.0031471226    0.4613282340
C       -6.3021051296   -1.8484510757   -1.9141510673
C       -2.8360436117   -4.8120946893    0.0038659322
C       -2.3611343769   -5.6414451443   -1.1902800003
N       -4.9681082567   -2.0080510461   -1.3382619075
N       -3.2541870816   -3.4670707410   -0.4003200035
O       -4.4202641852    0.1514727740   -1.7070792068
O       -5.2806261090   -4.2175630577   -1.0396719168
O        1.7293517714   -0.4421937575   -0.4238703202
O       -1.2032960862   -5.0408031271   -1.7816635586
S       -0.7526987673   -2.4104452106    0.3712171690
H       -7.5411566063   -2.6719531804   -0.2932020593
H       -2.6866065282    1.7739811130   -0.2602058616
H       -0.9737148461    1.9094468456   -0.6998279865
H       -2.1524667381    1.4140644693   -1.9154782427
H       -9.0884066959   -0.4186805644    1.3371960699
H      -10.1642810991   -0.2720935990   -0.0719829748
H       -9.6074247113   -1.8708426672    0.4517925662
H       -8.1732104357    0.5910080288   -2.2821286982
H       -8.4687016700    1.4290850059   -0.7457724043
H       -6.8267216423    0.9354843881   -1.1649599629
H        0.1561544220   -5.2395876667   -3.3325036409
H       -1.5229940099   -5.6472587095   -3.7476360477
H       -0.5493836275   -6.7640373832   -2.7540911661
H        0.6119465233    1.0898849221    0.4017922682
H        0.9663466005   -0.2527774909    1.4925912185
H       -6.3482594892   -0.9826234811   -2.5824505190
H       -6.5396199205   -2.7122419183   -2.5451125223
H       -3.6739338233   -5.3274136327    0.4850047796
H       -2.0391403033   -4.7661965809    0.7508718398
H       -3.1671052570   -5.7196184127   -1.9277725772
H       -2.1139423764   -6.6510154847   -0.8469636537
H        1.4038798765   -0.4509037013   -1.3417794631
45   

C       -2.7799924432   -1.1833825638   -0.7853643734
C       -1.7499499715   -0.1633659802   -0.5418419526
C       -0.6257534117   -0.7112981905    0.0495944796
C       -4.0907720864   -1.0021984322   -1.4011551044
C       -2.4022045227   -2.4231312430   -0.3719446531
C       -4.5149148641   -3.3224954631   -1.0836996154
C       -7.3203996105   -1.8454659142   -0.9846058824
C       -8.0217109775   -0.7610218053   -0.6115480515
C       -1.9285082664    1.2920508456   -0.9054720123
C       -9.0249901880   -0.8520178598    0.5144042567
C       -7.8546992363    0.5666476354   -1.3098964784
C       -0.6659245282   -5.7201045330   -3.0297953556
C        0.6382605906   -0.0159871175    0.4755869349
C       -6.2898281333   -1.9207724633   -2.0803237316
C       -2.8337819409   -4.8663542094   -0.1147663381
C       -2.3162866625   -5.6823477889   -1.3002055418
N       -4.9589148608   -2.0750764988   -1.4944705824
N       -3.2544701168   -3.5233345249   -0.5227490305
O       -4.4103301732    0.0849461375   -1.8615890723
O       -5.2582128717   -4.2888012763   -1.2139126750
O        1.6928713430   -0.4381836579   -0.3867365389
O       -1.1483056010   -5.0653648050   -1.8535817573
S       -0.7871253235   -2.4450410183    0.3265208939
H       -7.5205202625   -2.7793425100   -0.4702037524
H       -2.7666331244    1.7133586370   -0.3420547502
H       -1.0379604413    1.8861678248   -0.6949198100
H       -2.1466324525    1.3845092039   -1.9735760641
H       -8.5723149908   -0.4967605713    1.4449846283
H       -9.9029832045   -0.2375422769    0.2928754913
H       -9.3598609609   -1.8839368352    0.6583756373
H       -8.2894790769    0.5232496306   -2.3126070643
H       -8.3568512121    1.3606743606   -0.7491443921
H       -6.7993991173    0.8376130685   -1.3868115734
H        0.2550338349   -5.2357237514   -3.3681734702
H       -1.4074843957   -5.6581800159   -3.8325527777
H       -0.4489229257   -6.7727810983   -2.8219965280
H        0.5345116632    1.0701227708    0.4256204366
H        0.8765699407   -0.2804715214    1.5106323071
H       -6.3420504295   -1.0433219800   -2.7329233740
H       -6.5142599973   -2.7766180242   -2.7267109920
H       -3.6792998008   -5.3937437321    0.3391757572
H       -2.0589157760   -4.8168172510    0.6548601699
H       -3.0999867132   -5.7634544127   -2.0610241582
H       -2.0683403780   -6.6916806776   -0.9567658530
H        1.3920443319   -0.4402646023   -1.3130684826
