30   

C        7.4088334641   -5.7624291309    4.4739046734
C        8.5463393673   -9.0768702831    2.0728275923
C        8.9055931773   -8.8681517243    0.7438528412
C        7.5880388540   -8.2565172179    2.6721436734
C        5.8674904999   -6.0692259501    7.1904887765
C        8.3059457908   -7.8359587072    0.0215461257
C        6.7016472803   -6.2892335492    8.2906217455
C        7.2580193240   -3.9501661874    8.3286594648
C        6.9673930622   -7.2087365252    1.9594992828
C        5.7282986279   -4.7840177874    6.6407238143
C        7.4066573173   -5.2309872552    8.8679057541
C        7.3428805265   -7.0017732811    0.6060892596
C        6.4245820237   -3.7101108096    7.2292096305
C        6.1084805353   -5.8316144251    3.8837436596
C        5.9329487567   -6.3757122745    2.6157510687
N        8.4760199706   -5.7347803845    4.9420739354
N        4.8867114650   -4.5576990542    5.5587929011
N        4.9859547156   -5.1566360622    4.4170151007
O        4.7966623889   -6.1701124576    1.9578735073
Cl       8.4517065612   -5.5007376622   10.2400782860
Cl       6.6893352888   -5.6929485097   -0.3628095042
Cl       6.2833119040   -2.0819019369    6.5956102713
H        9.0080604953   -9.8762382214    2.6418478184
H        9.6501192997   -9.5011406113    0.2734107983
H        7.3142838318   -8.4490728086    3.7035059016
H        5.3225033591   -6.8979626268    6.7536329106
H        8.5928500497   -7.6655682062   -1.0097063831
H        6.8069695699   -7.2864275492    8.7016257626
H        7.8023015044   -3.1232313641    8.7680957220
H        4.2291415253   -5.5737086037    2.4801113293
30   

C        7.4340434616   -5.6053752183    4.3806631357
C        8.5202997022   -9.0843827937    2.1411764289
C        8.8646626256   -8.9512774574    0.7992745613
C        7.5762280522   -8.2245685172    2.7062598066
C        6.0074247475   -6.1714112930    7.1478846909
C        8.2653277044   -7.9540772942    0.0300635655
C        6.8706100938   -6.3746097802    8.2282934976
C        7.2419007243   -4.0030729141    8.3698269304
C        6.9519627443   -7.2116231621    1.9467936865
C        5.7574062982   -4.8775067803    6.6620405537
C        7.4971696308   -5.2913378423    8.8479297415
C        7.3162281318   -7.0798100109    0.5781121325
C        6.3765917150   -3.7798140047    7.2916587415
C        6.1170346657   -5.8311998838    3.8741944966
C        5.9375271114   -6.3380708243    2.5859440417
N        8.5160514888   -5.4478707030    4.7842824522
N        4.8776167910   -4.6685077467    5.6072629560
N        4.9676771265   -5.2526266534    4.4581068818
O        4.8528744645   -6.0141993870    1.8923555684
Cl       8.5753601897   -5.5399394862   10.1981670911
Cl       6.6780237761   -5.8181157825   -0.4621465828
Cl       6.0991395215   -2.1404919095    6.7362857521
H        8.9833000526   -9.8553574563    2.7471234657
H        9.5985838867   -9.6147433040    0.3548705571
H        7.3168921863   -8.3593121199    3.7503871581
H        5.5212406333   -7.0196004473    6.6801096914
H        8.5431806210   -7.8413320006   -1.0115637174
H        7.0576627793   -7.3779892484    8.5923576671
H        7.7254643738   -3.1565353777    8.8418400802
H        4.3013860017   -5.4110426760    2.4238058053
30   

C        7.4455351276   -5.4645795599    4.3275162015
C        8.5122087233   -9.1012723898    2.2212460095
C        8.8442309698   -9.0372312051    0.8718966519
C        7.5812109455   -8.2066049462    2.7523532550
C        6.1418179431   -6.2573856182    7.1387180060
C        8.2457660585   -8.0737748357    0.0611225082
C        7.0324305318   -6.4224902322    8.2028816987
C        7.2264857348   -4.0340927877    8.4031469987
C        6.9548185679   -7.2261461294    1.9518122834
C        5.7855687977   -4.9743820479    6.6930249582
C        7.5836197071   -5.3113267475    8.8442806160
C        7.3090665675   -7.1644662813    0.5727070399
C        6.3309470398   -3.8492760293    7.3424631956
C        6.1432556347   -5.8478668214    3.8836756551
C        5.9606342602   -6.3144753670    2.5735965907
N        8.5175232369   -5.1756719202    4.6817966465
N        4.8697273679   -4.8071569689    5.6619173697
N        4.9669813118   -5.3791707899    4.5079533156
O        4.9437916399   -5.8721950354    1.8471299589
Cl       8.6932082448   -5.5127959636   10.1767234862
Cl       6.6820333959   -5.9537901310   -0.5339106233
Cl       5.9234469232   -2.2218765953    6.8341384385
H        8.9753529712   -9.8454453640    2.8597133335
H        9.5685332622   -9.7275873650    0.4534068822
H        7.3350471066   -8.2893881648    3.8049776781
H        5.7124711157   -7.1273480579    6.6556186282
H        8.5155717119   -8.0145266721   -0.9870535936
H        7.2978336987   -7.4180044957    8.5386127020
H        7.6519472757   -3.1658834681    8.8915359054
H        4.4064108821   -5.2616351697    2.3842841722
30   

C        7.4350055742   -5.3207886432    4.2675276226
C        8.4948239357   -9.1141110578    2.2655356470
C        8.8136265055   -9.1146941042    0.9122629286
C        7.5809489835   -8.1847200290    2.7652469418
C        6.2568969502   -6.3253358435    7.1109463730
C        8.2178931685   -8.1817442619    0.0656177243
C        7.1679199149   -6.4446206428    8.1635793454
C        7.1874279408   -4.0526561882    8.4098008291
C        6.9566634699   -7.2308811332    1.9299073438
C        5.7997929673   -5.0644596458    6.6965875957
C        7.6415952513   -5.3083865792    8.8226899676
C        7.2974969986   -7.2377061617    0.5432603905
C        6.2688479605   -3.9143478657    7.3617631736
C        6.1716082716   -5.8533577842    3.8700775049
C        5.9902594090   -6.2756751409    2.5350625248
N        8.4764541158   -4.9055871251    4.5851445728
N        4.8558435989   -4.9485487193    5.6843489853
N        4.9727186688   -5.5038375720    4.5247358495
O        5.0591349430   -5.7133615482    1.7798840878
Cl       8.7741822337   -5.4534406744   10.1429685920
Cl       6.6773813783   -6.0805689642   -0.6237861226
Cl       5.7368996249   -2.3121870785    6.8895629219
H        8.9558765662   -9.8346771128    2.9319854274
H        9.5254782045   -9.8316858011    0.5178645793
H        7.3496769723   -8.2201396119    3.8237793304
H        5.8861842976   -7.2150605362    6.6154875473
H        8.4774218044   -8.1740124364   -0.9868257085
H        7.5080921827   -7.4242796867    8.4776997198
H        7.5530124139   -3.1649223316    8.9114525958
H        4.5384382956   -5.0901932216    2.3186146202
30   

C        7.4209746260   -5.1898542775    4.2369442718
C        8.4363962258   -9.1426579811    2.2860858672
C        8.7333481640   -9.1966157178    0.9296796832
C        7.5567449522   -8.1723371417    2.7684977476
C        6.3809105415   -6.3901160427    7.1085535076
C        8.1472549573   -8.2780086628    0.0618042594
C        7.3131543260   -6.4633356364    8.1463821903
C        7.1788902418   -4.0787448297    8.4270182903
C        6.9448811680   -7.2262215043    1.9134409428
C        5.8334974543   -5.1574871589    6.7213158141
C        7.7202518612   -5.3074431512    8.8156875200
C        7.2599946816   -7.2931895508    0.5199187758
C        6.2367646075   -3.9874248361    7.3947931080
C        6.2083674831   -5.8515453847    3.8791496148
C        6.0295282900   -6.2153145929    2.5129355336
N        8.4203528370   -4.6633541394    4.5228290105
N        4.8625543126   -5.0948973584    5.7308358390
N        4.9984295389   -5.6255678604    4.5625646240
O        5.2064935763   -5.5226940108    1.7432073273
Cl       8.8774683389   -5.3959836217   10.1194018724
Cl       6.6461922235   -6.1754308605   -0.6887913088
Cl       5.5930833292   -2.4179236387    6.9531102516
H        8.8892329566   -9.8528285607    2.9691327243
H        9.4200476339   -9.9447172098    0.5486847717
H        7.3477600538   -8.1698813524    3.8320870832
H        6.0605903073   -7.2953956696    6.6061906540
H        8.3881690350   -8.3145346622   -0.9944758497
H        7.7205136639   -7.4228818440    8.4419838979
H        7.4930140396   -3.1756860595    8.9361501862
H        4.7164410965   -4.8789744304    2.2860708314
30   

C        7.4067228046   -5.0467413213    4.2213712224
C        8.3626675485   -9.1913512877    2.2948047373
C        8.6265593233   -9.3013705234    0.9355665788
C        7.5338349824   -8.1710470874    2.7634498898
C        6.5163252936   -6.4355023238    7.1110041599
C        8.0543782184   -8.3913275126    0.0503094150
C        7.4609097261   -6.4401120752    8.1398934759
C        7.1450515086   -4.0739505712    8.4319408273
C        6.9415286408   -7.2257695375    1.8920577962
C        5.8697221635   -5.2485996184    6.7362554364
C        7.7831180713   -5.2586414059    8.8107791385
C        7.2165468972   -7.3571553571    0.4928220278
C        6.1881329823   -4.0525231806    7.4094660341
C        6.2692662889   -5.8362606944    3.8795692098
C        6.0992000884   -6.1464907901    2.4838271896
N        8.3429415021   -4.4084994922    4.4928233659
N        4.8826957665   -5.2636224094    5.7608510918
N        5.0547259883   -5.7629351097    4.5841720404
O        5.4018599143   -5.3397827690    1.7026473708
Cl       8.9543958361   -5.2626431168   10.1048122971
Cl       6.6053332781   -6.2750206728   -0.7497095056
Cl       5.4203161056   -2.5364729821    6.9798582252
H        8.8034600971   -9.8959028795    2.9914239639
H        9.2755958413  -10.0875245659    0.5653174635
H        7.3558513214   -8.1287724357    3.8316403218
H        6.2609152809   -7.3608313900    6.6079896016
H        8.2666270362   -8.4748756149   -1.0094587454
H        7.9431201733   -7.3666374032    8.4280234647
H        7.3935062150   -3.1510608984    8.9417952630
H        4.9558035859   -4.6629327262    2.2426832728
30   

C        5.9372704288   -7.1171198855    5.0130479338
C        9.3862086552   -7.1008495783    1.5413373029
C        9.2327419178   -7.7578797612    0.3277983515
C        8.2620865346   -6.6917679568    2.2591607220
C        5.6960506308   -4.9870210420    7.6604203671
C        7.9523664145   -7.9941619315   -0.1658192337
C        6.2817896770   -5.4566867555    8.8385155465
C        8.4543997056   -5.2382557581    7.8324845538
C        6.9459108423   -6.9248296764    1.7932702539
C        6.4827389155   -4.6495645623    6.5501822502
C        7.6682072010   -5.5843596393    8.9352637479
C        6.8044821562   -7.5911407370    0.5327149198
C        7.8857637964   -4.7703041852    6.6414215746
C        6.0752307887   -6.0981059409    4.0302329080
C        5.8021410072   -6.4972657289    2.6513144460
N        5.8085897389   -7.9589632249    5.8082479476
N        5.8637941529   -4.1357354548    5.4206416869
N        5.8430699579   -4.7351773353    4.2780833830
O        4.5589541808   -6.6823349599    2.2491925103
Cl       8.4088284124   -6.1511647843   10.4106012312
Cl       5.2674552267   -7.9784546904   -0.2266811634
Cl       8.9390681138   -4.3024063527    5.3204379074
H       10.3786504157   -6.9090276383    1.9342095558
H       10.1024580952   -8.0855338434   -0.2312021728
H        8.4392709523   -6.1858445817    3.1998871328
H        4.6179754560   -4.8869010664    7.5993755504
H        7.8345683542   -8.5087340581   -1.1125649451
H        5.6591570120   -5.7214465941    9.6855355613
H        9.5314278917   -5.3223349435    7.9044084170
H        3.9386728835   -6.3901849745    2.9399838580
30   

C        6.0588896918   -7.0799740361    4.8954892470
C        9.4116436183   -7.2066970121    1.6167050663
C        9.2440638319   -7.9568465817    0.4598194405
C        8.2982342795   -6.6830281601    2.2745721743
C        5.6756988732   -5.1208760022    7.6991074943
C        7.9608246111   -8.1757052679   -0.0353303870
C        6.3655175401   -5.5761792440    8.8250881691
C        8.4501329269   -5.1053293353    7.7242939877
C        6.9808248461   -6.8892205190    1.8010828486
C        6.3649289450   -4.6642392450    6.5670087544
C        7.7607261757   -5.5705195490    8.8479029277
C        6.8241527271   -7.6597664590    0.6046308985
C        7.7769161274   -4.6492029566    6.5838157332
C        6.0720869798   -5.9986020590    3.9689482899
C        5.8487993106   -6.3170070767    2.5849664348
N        6.0434945437   -7.9709561550    5.6462990703
N        5.6328230999   -4.1780006302    5.4931087176
N        5.6525482969   -4.7018274564    4.3135725793
O        4.6222717858   -6.3242527587    2.0889644088
Cl       8.6295187708   -6.1206218840   10.2582934631
Cl       5.2773257270   -8.0593785460   -0.1273602043
Cl       8.7112678354   -4.0302319478    5.2351192421
H       10.4064316229   -7.0295094311    2.0104393174
H       10.1048853058   -8.3720209270   -0.0529009568
H        8.4805122986   -6.1015411071    3.1702810741
H        4.5912459225   -5.1270267235    7.6952652867
H        7.8314989032   -8.7675294662   -0.9342248154
H        5.8168578776   -5.9346043558    9.6886704507
H        9.5325462375   -5.0863721680    7.7400655206
H        4.0040897408   -5.9405442832    2.7358266634
30   

C        6.2060101107   -7.0313569893    4.8434914631
C        9.3979745806   -7.2798450449    1.6340578686
C        9.2001541020   -8.0761023857    0.5125807117
C        8.3049927942   -6.6921298054    2.2721125373
C        5.6390326334   -5.1696322372    7.7254776935
C        7.9072760234   -8.2799499697    0.0349933534
C        6.3886679670   -5.5937161656    8.8249414868
C        8.4062679580   -4.9796039140    7.6715365424
C        6.9808156868   -6.8785083107    1.8115597497
C        6.2636901236   -4.6575038185    6.5798069093
C        7.7807142695   -5.5012597834    8.8076929384
C        6.7915646469   -7.7007686543    0.6572678583
C        7.6727750844   -4.5525154128    6.5568398396
C        6.0559800861   -5.9385720667    3.9407602165
C        5.8717650633   -6.2238300139    2.5594249026
N        6.3323882804   -7.9311017711    5.5731719217
N        5.4655164714   -4.2167456467    5.5325226618
N        5.5050200321   -4.7056723032    4.3378559372
O        4.6772973089   -6.0935130708    2.0034830718
Cl       8.7231305289   -6.0154789760   10.1840459349
Cl       5.2231393807   -8.0946388843   -0.0293756342
Cl       8.5289663884   -3.8638234978    5.1897060834
H       10.4001672362   -7.1153777893    2.0142753101
H       10.0448993807   -8.5395623031    0.0147047334
H        8.5049784644   -6.0723682670    3.1385461003
H        4.5575416855   -5.2455010215    7.7523240056
H        7.7537104963   -8.9098706521   -0.8336647866
H        5.8890641859   -5.9967631074    9.6985732566
H        9.4855340729   -4.8946712633    7.6566015196
H        4.0732781663   -5.6559076276    2.6296339696
30   

C        6.3706007104   -6.9658032570    4.8205047074
C        9.3959120556   -7.3194048832    1.6209775226
C        9.1623698335   -8.1679172562    0.5445870860
C        8.3246684792   -6.6875874800    2.2543470727
C        5.5716036919   -5.2015097392    7.7504794341
C        7.8557361841   -8.3821148645    0.1091261727
C        6.3507305634   -5.5898385410    8.8425172613
C        8.3235334239   -4.8584660955    7.6803033619
C        6.9901532240   -6.8818135463    1.8316984497
C        6.1585448309   -4.6495108100    6.6034843398
C        7.7354078482   -5.4216741412    8.8166732503
C        6.7627622791   -7.7594968993    0.7293170773
C        7.5600903962   -4.4645200125    6.5731131626
C        6.0492721750   -5.8971223467    3.9316857094
C        5.9034578389   -6.1698924152    2.5549107317
N        6.6424077698   -7.8449733806    5.5355692583
N        5.3264090811   -4.2570889120    5.5625514488
N        5.3914945467   -4.7266824497    4.3604663030
O        4.7534202035   -5.9223863732    1.9451245803
Cl       8.7139730167   -5.8953033151   10.1824441710
Cl       5.1677904950   -8.1710790653    0.1198181560
Cl       8.3694642461   -3.7247566777    5.2038207765
H       10.4087197621   -7.1477082915    1.9684028873
H        9.9900808224   -8.6644241736    0.0499749825
H        8.5454726071   -6.0243966893    3.0833163140
H        4.4962537907   -5.3378553695    7.7836359825
H        7.6736714343   -9.0538648381   -0.7218466033
H        5.8799565725   -6.0252521601    9.7166217272
H        9.3966815905   -4.7164215882    7.6586621679
H        4.1602308311   -5.4485191651    2.5554901226
30   

C        6.5039044237   -6.9209392499    4.8000522386
C        9.3992838886   -7.3775878476    1.6018577974
C        9.1307577703   -8.2511545214    0.5530343695
C        8.3509653521   -6.7090441480    2.2364732939
C        5.5168712162   -5.2770098877    7.7675745663
C        7.8122858589   -8.4548291497    0.1474062993
C        6.3258379958   -5.6229015743    8.8520510696
C        8.2401562839   -4.7550210981    7.6860937424
C        7.0075708902   -6.8924618540    1.8410435117
C        6.0594828144   -4.6791332974    6.6219235334
C        7.6966147263   -5.3659657335    8.8200616714
C        6.7434566525   -7.7951413081    0.7708957330
C        7.4460205574   -4.4008194290    6.5867439627
C        6.0368460989   -5.8959649625    3.9230356869
C        5.9411662511   -6.1374189606    2.5459636769
N        6.8981606496   -7.7636579607    5.5020243232
N        5.1955001539   -4.3406866648    5.5874147936
N        5.2853001413   -4.7919298653    4.3792196228
O        4.8602673212   -5.7600487129    1.8765186714
Cl       8.7120903412   -5.7903053906   10.1751395761
Cl       5.1246412895   -8.1889071733    0.2164978774
Cl       8.1984780094   -3.6001637514    5.2190552242
H       10.4212158778   -7.2142342470    1.9257655950
H        9.9405930270   -8.7750340019    0.0570754519
H        8.5935280172   -6.0243154537    3.0418325345
H        4.4529411155   -5.4836285991    7.8049532930
H        7.6023119780   -9.1458728293   -0.6608183570
H        5.8893215001   -6.0954508603    9.7246247017
H        9.3020767951   -4.5453174838    7.6596533026
H        4.2705918322   -5.2645044638    2.4733555521
30   

C        6.6417824224   -6.8402206224    4.8031461460
C        9.4073664650   -7.4060958178    1.5893134993
C        9.0983920634   -8.2998222828    0.5680842137
C        8.3862853976   -6.7024316603    2.2308245226
C        5.4642816017   -5.3517720019    7.8070996239
C        7.7670303068   -8.4881165723    0.1966949889
C        6.2974082649   -5.6516502904    8.8868460380
C        8.1417328152   -4.6298934870    7.7328757457
C        7.0323109239   -6.8729922449    1.8696929616
C        5.9600008885   -4.7010727436    6.6692907404
C        7.6458395794   -5.2955132041    8.8579504443
C        6.7266923594   -7.7925684193    0.8290001282
C        7.3220615488   -4.3185453924    6.6389700005
C        6.0321899392   -5.8753067708    3.9442173457
C        5.9876343418   -6.0835288238    2.5655867613
N        7.1540021536   -7.6324377947    5.4877508418
N        5.0711938764   -4.4187625939    5.6386585133
N        5.1889765311   -4.8487935789    4.4247097696
O        4.9867036294   -5.5830024667    1.8513186224
Cl       8.6915239619   -5.6659697494   10.2059088048
Cl       5.0836532897   -8.1555388748    0.3295726174
Cl       8.0121783099   -3.4463971768    5.2820996470
H       10.4393013308   -7.2540154483    1.8858506032
H        9.8870547347   -8.8503473642    0.0669002506
H        8.6562183963   -6.0008382690    3.0127432979
H        4.4183748717   -5.6361707012    7.8415121208
H        7.5251269633   -9.1931689351   -0.5901790739
H        5.8973532034   -6.1663739956    9.7529791400
H        9.1858864539   -4.3442433041    7.7088196946
H        4.3975130734   -5.0763315777    2.4396100536
30   

C        6.7487598552   -6.7880782302    4.8092849220
C        9.3904244758   -7.4734118164    1.5572406942
C        9.0389171289   -8.3825148621    0.5628616280
C        8.3988204485   -6.7388512833    2.2107610811
C        5.4142114428   -5.4585963330    7.8337314775
C        7.6948376217   -8.5543993310    0.2295036709
C        6.2775452424   -5.6928091274    8.9058713542
C        8.0181454342   -4.5057524771    7.7490631149
C        7.0340334434   -6.8963750883    1.8887612128
C        5.8434670967   -4.7596965444    6.6977770512
C        7.5900900096   -5.2217959358    8.8710986643
C        6.6852822868   -7.8270204207    0.8753849388
C        7.1662409698   -4.2571115978    6.6634095969
C        6.0056774042   -5.9100666458    3.9611116813
C        6.0118548789   -6.0782403188    2.5810984261
N        7.3704172307   -7.5084169637    5.4827992880
N        4.9267115165   -4.5551191772    5.6728499368
N        5.0705890028   -4.9730832061    4.4569095173
O        5.1015829660   -5.4622295959    1.8342575484
Cl       8.6741967838   -5.5141417807   10.2079433002
Cl       5.0198141573   -8.1533145328    0.4301374029
Cl       7.7679947277   -3.3177875245    5.3093406690
H       10.4323410091   -7.3328749890    1.8229981509
H        9.8047266957   -8.9562965113    0.0524145944
H        8.6990497261   -6.0242221976    2.9694731706
H        4.3972774781   -5.8331518918    7.8719282602
H        7.4195144845   -9.2688864103   -0.5375899699
H        5.9294790860   -6.2467994572    9.7701885117
H        9.0339950232   -4.1319068556    7.7204378891
H        4.5075184261   -4.9515055358    2.4143464773
30   

C        6.8955024577   -6.6818074657    4.7914499320
C        9.3838109721   -7.5375800107    1.4746330964
C        8.9755180781   -8.4707274171    0.5244111829
C        8.4330525725   -6.7628654981    2.1428417341
C        5.3680015962   -5.5932129573    7.8164508356
C        7.6159317959   -8.6251624602    0.2485684762
C        6.2388358546   -5.7795495412    8.8919122718
C        7.8719054339   -4.3983949851    7.7949584403
C        7.0546713434   -6.9064753806    1.8800828200
C        5.7413180017   -4.8219411724    6.7082427121
C        7.5021293147   -5.1877993345    8.8882676980
C        6.6484606752   -7.8565670397    0.9105998519
C        7.0103007218   -4.1952081342    6.7072421221
C        6.0229157525   -5.9186130978    3.9547775861
C        6.0666587510   -6.0516126296    2.5735291312
N        7.6230165283   -7.3090061347    5.4522424261
N        4.8228142733   -4.6752243142    5.6752187987
N        5.0061748228   -5.0743406786    4.4575980876
O        5.2483088676   -5.3344237512    1.8103714617
Cl       8.5967791584   -5.4235960522   10.2277593383
Cl       4.9580540079   -8.1427117888    0.5408338762
Cl       7.5334816609   -3.1647010569    5.3875361109
H       10.4379910244   -7.4091080432    1.6941622247
H        9.7096146685   -9.0750752259    0.0027660303
H        8.7750061999   -6.0293412236    2.8649323234
H        4.3903829692   -6.0621207829    7.8293452121
H        7.2962514745   -9.3553526596   -0.4858056859
H        5.9357375665   -6.3910489943    9.7340530965
H        8.8493823714   -3.9324164849    7.7899878460
H        4.6530145605   -4.8165261171    2.3829083830
