25

C      1.76520    1.20494    1.49835
C      0.67015    0.43868    1.91013
C      1.61065    2.57431    1.20527
C     -0.55333    1.10526    2.01059
C     -0.57405    2.49055    1.68930
C     -2.57992    1.75071    2.27357
C     -4.03843    1.82895    2.60383
C     -6.22921    4.66072    1.72703
C     -5.85104    3.36066    2.40392
N      0.44818    3.24269    1.29202
N     -1.82716    0.67424    2.36790
N     -1.89084    2.87473    1.87831
O     -5.36773    5.68995    2.21809
O     -4.57357    2.95670    1.92836
H      2.74804    0.75374    1.39821
H      0.76046   -0.61944    2.14003
H      2.47076    3.15878    0.88447
H     -4.53254    0.89537    2.30313
H     -4.16064    1.93978    3.69271
H     -7.28200    4.87975    1.95918
H     -6.12931    4.54206    0.63914
H     -6.60717    2.59385    2.17535
H     -5.82318    3.50799    3.49374
H     -2.31052    3.78056    1.70341
H     -5.55911    6.50719    1.73361
