30

C      0.62803   -0.06967   -0.79319
C      1.33132    2.18023    0.11391
C     -0.62655   -0.30060    1.33725
C      1.54417    0.67571    0.19703
C     -0.56224   -0.75910   -0.12231
C     -3.03766   -1.35787   -0.37635
C     -2.32725    5.41529   -0.24717
C     -1.85823   -0.54391   -0.91783
C     -1.85238    3.95903   -0.18350
C     -0.34123    3.87122   -0.04824
O      0.86279   -0.10827   -1.98342
O      2.21342    3.00992    0.16199
O      0.01329    2.46430   -0.00189
S      1.10622    0.04304    1.86254
H     -1.22539    0.60756    1.43920
H     -1.02515   -1.06723    2.00384
H      2.59163    0.46857   -0.02129
H     -0.30836   -1.82875   -0.13683
H     -2.81331   -2.43078   -0.38243
H     -3.93166   -1.20105   -0.98846
H     -3.28908   -1.07568    0.65184
H     -2.04650    5.96643    0.65718
H     -1.89262    5.93887   -1.10579
H     -3.41598    5.46533   -0.34311
H     -2.09994    0.52546   -0.90539
H     -1.66212   -0.80956   -1.96129
H     -2.16029    3.42091   -1.08723
H     -2.31713    3.44740    0.66732
H      0.17313    4.33250   -0.89630
H      0.01715    4.35066    0.86763
