24

C      0.29646    3.66095   -2.26870
C     -1.08180    2.69924   -0.46203
C     -1.43066    1.63093    0.36269
C      0.59357    1.32757   -1.57851
C     -0.06801    2.55601   -1.42794
C      0.22755    0.26913   -0.75483
C     -0.76774    0.41507    0.22062
C      0.64492   -1.96997    0.00761
C     -0.06602   -1.57291    1.29270
C      0.92613   -0.99603    2.30762
N      0.59978    4.55076   -2.95536
N      0.80740   -1.02584   -0.90413
N      1.10171   -3.20751   -0.14355
O     -1.12875   -0.66829    0.98373
H     -1.58803    3.65317   -0.35746
H     -2.20969    1.72580    1.11239
H      1.37019    1.21488   -2.33002
H     -0.56491   -2.45366    1.70250
H      1.43819   -0.11485    1.91293
H      1.67602   -1.74247    2.58509
H      0.37332   -0.70888    3.20489
H      1.30231   -1.22245   -1.77184
H      1.60959   -3.51639   -0.96797
H      0.94218   -3.90219    0.57831
