30   

C        7.4088334641   -5.7624291309    4.4739046734
C        8.5145246570   -9.1007200448    2.0651766368
C        8.9081621873   -8.8627165882    0.7504775338
C        7.5536123981   -8.2822142878    2.6631900808
C        5.8695128156   -6.0707460802    7.1918305442
C        8.3413549573   -7.8025231937    0.0416772551
C        6.7047465723   -6.2893310452    8.2914083555
C        7.2585756374   -3.9496327710    8.3279218240
C        6.9673924601   -7.2076068180    1.9631316359
C        5.7284026668   -4.7859580601    6.6416371566
C        7.4090011411   -5.2300378772    8.8676804126
C        7.3780471334   -6.9689892196    0.6265678275
C        6.4240072073   -3.7110010763    7.2290072826
C        6.1084805353   -5.8316144251    3.8837436596
C        5.9329487567   -6.3757122745    2.6157510687
N        8.4762619609   -5.7349946990    4.9414830203
N        4.8853714356   -4.5612538780    5.5605339356
N        4.9847090305   -5.1600469797    4.4187069853
O        4.7966623889   -6.1701124576    1.9578735073
Cl       8.4552986220   -5.4980070448   10.2392493909
Cl       6.7588674265   -5.6273056866   -0.3189818099
Cl       6.2804358172   -2.0832580101    6.5947383606
H        8.9520411199   -9.9207359365    2.6238341648
H        9.6539999921   -9.4947435784    0.2808130581
H        7.2530281177   -8.4925100043    3.6836083335
H        5.3251120642   -6.9002656212    6.7557476850
H        8.6536300733   -7.6104635452   -0.9783362190
H        6.8114894122   -7.2862302802    8.7027523467
H        7.8023138292   -3.1219139294    8.7665504549
H        4.2294434679   -5.5732351377    2.4799135584
30   

C        7.4340434616   -5.6053752183    4.3806631357
C        8.4829213977   -9.1135694290    2.1357352996
C        8.8624860932   -8.9512358822    0.8061124659
C        7.5375964381   -8.2541139337    2.6997138042
C        6.0126849754   -6.1751267761    7.1508076858
C        8.2981897469   -7.9246216605    0.0485697613
C        6.8782170603   -6.3748143497    8.2299414081
C        7.2432188715   -4.0021023121    8.3683195117
C        6.9500329398   -7.2129131295    1.9508938111
C        5.7580972838   -4.8824722683    6.6641766783
C        7.5027616342   -5.2891620312    8.8474199803
C        7.3504282389   -7.0494090675    0.5971550716
C        6.3754214541   -3.7823648916    7.2914012667
C        6.1170346657   -5.8311998838    3.8741944966
C        5.9375271114   -6.3380708243    2.5859440417
N        8.5161711752   -5.4474826274    4.7837734360
N        4.8751298483   -4.6775523731    5.6113625374
N        4.9653056805   -5.2617673824    4.4623228405
O        4.8528744645   -6.0141993870    1.8923555684
Cl       8.5836708796   -5.5333996169   10.1962728027
Cl       6.7506233011   -5.7515695505   -0.4206229554
Cl       6.0924587648   -2.1444391032    6.7347190776
H        8.9200753299   -9.9063193348    2.7326996612
H        9.5967547220   -9.6148103469    0.3624366684
H        7.2506001750   -8.4067278065    3.7341441592
H        5.5280154474   -7.0250919164    6.6847076784
H        8.6021797492   -7.7900756101   -0.9831257339
H        7.0686048921   -7.3773096629    8.5946941111
H        7.7252938278   -3.1537675920    8.8386205203
H        4.3016908666   -5.4105912250    2.4236082030
30   

C        7.4455351276   -5.4645795599    4.3275162015
C        8.4685563142   -9.1358562449    2.2169416039
C        8.8368024621   -9.0423172257    0.8782617373
C        7.5379310345   -8.2399939221    2.7471895002
C        6.1499907168   -6.2621523656    7.1425740300
C        8.2761007548   -8.0475761160    0.0777753056
C        7.0435259603   -6.4219016076    8.2050274229
C        7.2281094463   -4.0323893011    8.4010895460
C        6.9509826710   -7.2293565291    1.9559185698
C        5.7872021743   -4.9814235891    6.6958568575
C        7.5913811670   -5.3074579770    8.8435518351
C        7.3426568182   -7.1355432920    0.5901277354
C        6.3294404154   -3.8529603797    7.3420899379
C        6.1432556347   -5.8478668214    3.8836756551
C        5.9606342602   -6.3144753670    2.5735965907
N        8.5174162594   -5.1748058605    4.6813963436
N        4.8673655475   -4.8204910255    5.6674544130
N        4.9647901090   -5.3932897744    4.5139911069
O        4.9437916399   -5.8721950354    1.8471299589
Cl       8.7043382642   -5.5023060586   10.1741574700
Cl       6.7596375177   -5.8843838668   -0.4947825335
Cl       5.9140228610   -2.2281234844    6.8320291741
H        8.9037951214   -9.9032622722    2.8474715041
H        9.5602738623   -9.7339164167    0.4603788511
H        7.2628986013   -8.3411939393    3.7910677769
H        5.7231573181   -7.1345834821    6.6617300760
H        8.5730758400   -7.9660762170   -0.9615292657
H        7.3137061000   -7.4158102251    8.5416783185
H        7.6510887820   -3.1616933460    8.8871957864
H        4.4070114043   -5.2607831881    2.3838941212
30   

C        7.4350055742   -5.3207886432    4.2675276226
C        8.4455572723   -9.1527163661    2.2625211586
C        8.8013634814   -9.1243003702    0.9183302984
C        7.5336831711   -8.2205730852    2.7612817665
C        6.2674651245   -6.3302107559    7.1153805266
C        8.2459168463   -8.1588897697    0.0802425221
C        7.1814050196   -6.4426519341    8.1661406938
C        7.1890255669   -4.0501075319    8.4074647842
C        6.9512850423   -7.2353256437    1.9336506111
C        5.8025729791   -5.0726934402    6.6997704392
C        7.6505259498   -5.3026601691    8.8219665006
C        7.3307145680   -7.2102970130    0.5584697924
C        6.2672782699   -3.9187033594    7.3612721804
C        6.1716082716   -5.8533577842    3.8700775049
C        5.9902594090   -6.2756751409    2.5350625248
N        8.4761008994   -4.9044744510    4.5848475530
N        4.8545759635   -4.9648729230    5.6905902547
N        4.9717670752   -5.5218427508    4.5319450836
O        5.0591349430   -5.7133615482    1.7798840878
Cl       8.7864456024   -5.4392885065   10.1402642148
Cl       6.7608007800   -6.0089765434   -0.5889455260
Cl       5.7258648515   -2.3203558066    6.8869806310
H        8.8767732551   -9.8974346910    2.9223394409
H        9.5111903692   -9.8436963490    0.5246534200
H        7.2723386529   -8.2745659392    3.8120597049
H        5.9002112608   -7.2227939070    6.6225265697
H        8.5335539041   -8.1289765144   -0.9644771381
H        7.5272842974   -7.4199404153    8.4813792331
H        7.5512044318   -3.1595152169    8.9065056171
H        4.5397222565   -5.0886247519    2.3179989497
30   

C        7.4209746260   -5.1898542775    4.2369442718
C        8.3841384016   -9.1815297332    2.2851312714
C        8.7179279072   -9.2091671869    0.9361181326
C        7.5077159155   -8.2072822543    2.7659820967
C        6.3931937071   -6.3945433903    7.1132710540
C        8.1732605584   -8.2594826912    0.0743543414
C        7.3279343744   -6.4598633797    8.1492688624
C        7.1801602663   -4.0754447680    8.4246038508
C        6.9386766758   -7.2310282379    1.9165287401
C        5.8373888592   -5.1662357627    6.7245718744
C        7.7294541952   -5.3000634142    8.8151186070
C        7.2926298976   -7.2687663667    0.5321742913
C        6.2352652265   -3.9921118589    7.3941798460
C        6.2083674831   -5.8515453847    3.8791496148
C        6.0295282900   -6.2153145929    2.5129355336
N        8.4198220744   -4.6622302624    4.5226235502
N        4.8629055727   -5.1130034699    5.7371954508
N        4.9993787280   -5.6461645419    4.5702808715
O        5.2064935763   -5.5226940108    1.7432073273
Cl       8.8894878469   -5.3789057982   10.1169321152
Cl       6.7338311490   -6.1068784255   -0.6612189360
Cl       5.5813399915   -2.4275475175    6.9501214956
H        8.8061973873   -9.9148540124    2.9633835828
H        9.4017086308   -9.9605644144    0.5563559290
H        7.2682153988   -8.2221914329    3.8230803489
H        6.0771419472   -7.3028298902    6.6136781385
H        8.4425132585   -8.2755838002   -0.9755833435
H        7.7414669257   -7.4163566617    8.4461550779
H        7.4900980119   -3.1694048029    8.9309884170
H        4.7186997047   -4.8767228912    2.2853838484
30   

C        7.4067228046   -5.0467413213    4.2213712224
C        8.3133489909   -9.2251811453    2.2964008117
C        8.6111195019   -9.3139160921    0.9423354446
C        7.4881006659   -8.2007719065    2.7627821353
C        6.5292110362   -6.4388356820    7.1157960468
C        8.0776634973   -8.3776445112    0.0600364330
C        7.4753628098   -6.4352016701    8.1431318511
C        7.1456521205   -4.0702650407    8.4297602425
C        6.9356491573   -7.2299180919    1.8942649842
C        5.8745547234   -5.2569829626    6.7393643067
C        7.7913641422   -5.2501820132    8.8106377975
C        7.2466770712   -7.3374738324    0.5010744286
C        6.1868979778   -4.0571924068    7.4088067141
C        6.2692662889   -5.8362606944    3.8795692098
C        6.0992000884   -6.1464907901    2.4838271896
N        8.3423440862   -4.4075633886    4.4926917452
N        4.8851544187   -5.2817567726    5.7667215432
N        5.0582177450   -5.7841385621    4.5916616759
O        5.4018599143   -5.3397827690    1.7026473708
Cl       8.9643503806   -5.2440815012   10.1030942460
Cl       6.6894590429   -6.2170627611   -0.7327431472
Cl       5.4091959990   -2.5469592737    6.9765902246
H        8.7252227695   -9.9493227709    2.9906021269
H        9.2570198139  -10.1034998790    0.5739032694
H        7.2816194526   -8.1731652704    3.8263756629
H        6.2785878130   -7.3669304461    6.6155155805
H        8.3161991531   -8.4444924969   -0.9953308409
H        7.9635222889   -7.3581467154    8.4326974958
H        7.3894326047   -3.1446598466    8.9369323300
H        4.9589339495   -4.6604633990    2.2421163359
30   

C        5.9372704288   -7.1171198855    5.0130479338
C        9.3865526336   -7.0695436892    1.5281383497
C        9.2344928848   -7.7486948859    0.3265653906
C        8.2613948800   -6.6630364211    2.2458752653
C        5.6980569074   -4.9871603774    7.6565323160
C        7.9544062712   -8.0105130687   -0.1548429961
C        6.2765911810   -5.4600364899    8.8369667176
C        8.4547645179   -5.2478158196    7.8416922417
C        6.9459649429   -6.9220813892    1.7925070861
C        6.4913946799   -4.6511051735    6.5505655485
C        7.6621317173   -5.5923511050    8.9402959538
C        6.8055945144   -7.6121966345    0.5447933331
C        7.8934319232   -4.7767523946    6.6484998947
C        6.0752307887   -6.0981059409    4.0302329080
C        5.8021410072   -6.4972657289    2.6513144460
N        5.8079031169   -7.9588820638    5.8082226867
N        5.8809756934   -4.1325542847    5.4186832998
N        5.8594837548   -4.7322112976    4.2763307452
O        4.5589541808   -6.6823349599    2.2491925103
Cl       8.3938819970   -6.1627712279   10.4186478025
Cl       5.2690586210   -8.0359091111   -0.1959113517
Cl       8.9545548607   -4.3107046703    5.3332148199
H       10.3787039090   -6.8584819472    1.9117572236
H       10.1050529503   -8.0740312712   -0.2324744187
H        8.4364113610   -6.1386651457    3.1768316246
H        4.6206496847   -4.8831665165    7.5904837295
H        7.8376493471   -8.5422402348   -1.0922014842
H        5.6491019958   -5.7235508866    9.6807798337
H        9.5311609903   -5.3354473979    7.9185881499
H        3.9385833007   -6.3932398514    2.9411670514
30   

C        6.0588896918   -7.0799740361    4.8954892470
C        9.4150983259   -7.1515835963    1.5884874073
C        9.2474660379   -7.9378718632    0.4555125289
C        8.2998437019   -6.6328039073    2.2473436713
C        5.6777558963   -5.1215582556    7.6944588070
C        7.9623068627   -8.1990796340   -0.0139119776
C        6.3592740674   -5.5823818313    8.8233341135
C        8.4521538426   -5.1179029812    7.7355746428
C        6.9816463463   -6.8822565080    1.7995893147
C        6.3756148513   -4.6651696726    6.5675125269
C        7.7543879731   -5.5826047390    8.8541567374
C        6.8241023618   -7.6912439762    0.6296026518
C        7.7873754279   -4.6563164556    6.5924902181
C        6.0720869798   -5.9986020590    3.9689482899
C        5.8487993106   -6.3170070767    2.5849664348
N        6.0423079759   -7.9709166625    5.6463248273
N        5.6533603726   -4.1711952987    5.4906903046
N        5.6734114368   -4.6947344218    4.3111338818
O        4.6222717858   -6.3242527587    2.0889644088
Cl       8.6129174758   -6.1390603669   10.2683144480
Cl       5.2744931942   -8.1481707808   -0.0615508127
Cl       8.7317570355   -4.0375077472    5.2508574003
H       10.4112203346   -6.9428164916    1.9628685555
H       10.1097415363   -8.3488319063   -0.0581604147
H        8.4790822922   -6.0222836651    3.1241289808
H        4.5933340672   -5.1228099532    7.6845290200
H        7.8329134106   -8.8187547773   -0.8938427008
H        5.8043034181   -5.9403482016    9.6830573063
H        9.5345245779   -5.1034102598    7.7573973111
H        4.0032327827   -5.9446759217    2.7374021513
30   

C        6.2060101107   -7.0313569893    4.8434914631
C        9.4033015244   -7.2235911091    1.6025619260
C        9.2038594365   -8.0570651154    0.5082742086
C        8.3085486754   -6.6402076969    2.2418848749
C        5.6416039658   -5.1690240456    7.7211360066
C        7.9076590078   -8.3037289434    0.0601102264
C        6.3840901805   -5.5992542586    8.8231434138
C        8.4100657326   -4.9922922024    7.6806360654
C        6.9823773506   -6.8704778915    1.8103472558
C        6.2743374830   -4.6571660368    6.5797488268
C        7.7766729324   -5.5133557702    8.8126720914
C        6.7906114953   -7.7318768342    0.6865068000
C        7.6838553468   -4.5591697614    6.5636345629
C        6.0559800861   -5.9385720667    3.9407602165
C        5.8717650633   -6.2238300139    2.5594249026
N        6.3311174346   -7.9311894993    5.5732868424
N        5.4846810373   -4.2079279249    5.5298506935
N        5.5244204749   -4.6964600731    4.3351353945
O        4.6772973089   -6.0935130708    2.0034830718
Cl       8.7102216065   -6.0346582361   10.1923818837
Cl       5.2174815009   -8.1804786328    0.0462730370
Cl       8.5493754347   -3.8709818933    5.2022370923
H       10.4078918031   -7.0274246766    1.9607503966
H       10.0499700849   -8.5167554067    0.0092193638
H        8.5060680482   -5.9915479123    3.0874772647
H        4.5596390418   -5.2394762835    7.7428278256
H        7.7528749286   -8.9620546438   -0.7870138760
H        5.8785681052   -6.0017956450    9.6935915412
H        9.4897664457   -4.9123901526    7.6708006794
H        4.0721814412   -5.6590923734    2.6307459344
30   

C        6.3706007104   -6.9658032570    4.8205047074
C        9.4011438979   -7.2666658863    1.5890498407
C        9.1658040349   -8.1515766019    0.5421927920
C        8.3284061261   -6.6378757667    2.2232936809
C        5.5746823356   -5.1985563388    7.7466308311
C        7.8560568668   -8.4063150399    0.1381291931
C        6.3479031138   -5.5930161106    8.8407369376
C        8.3288021009   -4.8706294965    7.6866317233
C        6.9921960709   -6.8738942325    1.8312950999
C        6.1688655569   -4.6477256144    6.6027779974
C        7.7335928539   -5.4322781817    8.8200554474
C        6.7621983878   -7.7893073549    0.7620807047
C        7.5714072199   -4.4707672795    6.5775205588
C        6.0492721750   -5.8971223467    3.9316857094
C        5.9034578389   -6.1698924152    2.5549107317
N        6.6412369238   -7.8452343560    5.5356922017
N        5.3436928825   -4.2469149743    5.5597182355
N        5.4083301189   -4.7165271512    4.3577149110
O        4.7534202035   -5.9223863732    1.9451245803
Cl       8.7047946247   -5.9129606771   10.1886015979
Cl       5.1629612905   -8.2489304716    0.2007666364
Cl       8.3892852557   -3.7332428900    5.2121259290
H       10.4162104432   -7.0651150419    1.9130213592
H        9.9946390404   -8.6453027794    0.0466743656
H        8.5466055520   -5.9473105025    3.0303431770
H        4.4984729849   -5.3288378706    7.7758714667
H        7.6727147550   -9.1054540964   -0.6696563512
H        5.8717885625   -6.0272456509    9.7125311374
H        9.4027622704   -4.7343758898    7.6688298031
H        4.1592690070   -5.4506003795    2.5561250644
30   

C        6.5039044237   -6.9209392499    4.8000522386
C        9.4045430885   -7.3301670654    1.5727061690
C        9.1339247257   -8.2390079320    0.5542096646
C        8.3549296690   -6.6631144514    2.2071609770
C        5.5198332654   -5.2732571700    7.7646467272
C        7.8122906768   -8.4804196104    0.1796852371
C        6.3244387698   -5.6245821475    8.8506722699
C        8.2460317045   -4.7651129328    7.6903903891
C        7.0098253457   -6.8856391548    1.8419163514
C        6.0684260864   -4.6766296456    6.6211733963
C        7.6965882898   -5.3744369477    8.8223697678
C        6.7428399729   -7.8244435033    0.8057470129
C        7.4564019701   -4.4057066798    6.5895710457
C        6.0368460989   -5.8959649625    3.9230356869
C        5.9411662511   -6.1374189606    2.5459636769
N        6.8972500554   -7.7640633633    5.5020403179
N        5.2094817288   -4.3307823051    5.5851045823
N        5.2984974067   -4.7822631878    4.3770247500
O        4.8602673212   -5.7600487129    1.8765186714
Cl       8.7065782793   -5.8050378654   10.1795600513
Cl       5.1198707179   -8.2596805570    0.2974288353
Cl       8.2160309215   -3.6075988003    5.2243656288
H       10.4287577164   -7.1391313374    1.8733931737
H        9.9447138876   -8.7612590543    0.0580851326
H        8.5949863545   -5.9524864383    2.9905919372
H        4.4547554150   -5.4743590230    7.7992362922
H        7.6008672570   -9.1976574429   -0.6050054228
H        5.8834793688   -6.0959276295    9.7216597260
H        9.3090480520   -4.5607501044    7.6666615274
H        4.2699265985   -5.2656597093    2.4736283306
30   

C        6.6417824224   -6.8402206224    4.8031461460
C        9.4118727923   -7.3653791958    1.5639640164
C        9.1007760320   -8.2931507250    0.5735685574
C        8.3896646636   -6.6615883964    2.2039354255
C        5.4664914698   -5.3484035238    7.8052377652
C        7.7663787365   -8.5162812737    0.2323772597
C        6.2969027633   -5.6523750440    8.8859645170
C        8.1468874028   -4.6368363462    7.7355078566
C        7.0341581818   -6.8682915273    1.8720109085
C        5.9664887970   -4.6985802738    6.6687871236
C        7.6467326298   -5.3012921919    8.8593768225
C        6.7255956996   -7.8225447569    0.8656934542
C        7.3300581669   -4.3215727355    6.6406566796
C        6.0321899392   -5.8753067708    3.9442173457
C        5.9876343418   -6.0835288238    2.5655867613
N        7.1535376030   -7.6329090127    5.4875327263
N        5.0807261646   -4.4107269000    5.6372048781
N        5.1976796835   -4.8411088359    4.4233597789
O        4.9867036294   -5.5830024667    1.8513186224
Cl       8.6889566681   -5.6764842995   10.2086977690
Cl       5.0787732823   -8.2213955435    0.4091700666
Cl       8.0254289811   -3.4513933090    5.2851920399
H       10.4459574726   -7.1878456214    1.8379722409
H        9.8902636809   -8.8432335297    0.0731914754
H        8.6570619693   -5.9353814573    2.9640194851
H        4.4194263622   -5.6287117406    7.8379074605
H        7.5230268344   -9.2463882713   -0.5308523380
H        5.8936479351   -6.1662494324    9.7511165544
H        9.1921584069   -4.3551912505    7.7131256687
H        4.3971166784   -5.0769530185    2.4397393165
30   

C        6.7487598552   -6.7880782302    4.8092849220
C        9.3931769724   -7.4397163519    1.5344573932
C        9.0392403169   -8.3820733636    0.5717867179
C        8.4009041923   -6.7033933472    2.1853088425
C        5.4152535235   -5.4569061667    7.8330234649
C        7.6922561130   -8.5863633801    0.2684049864
C        6.2775834549   -5.6930553860    8.9055591955
C        8.0209681193   -4.5087043376    7.7501397733
C        7.0347387575   -6.8944879891    1.8923190921
C        5.8464284192   -4.7582933356    6.6976147434
C        7.5909780282   -5.2243158335    8.8717096401
C        6.6826730118   -7.8589779181    0.9140554280
C        7.1701325144   -4.2581968273    6.6641025252
C        6.0056774042   -5.9100666458    3.9611116813
C        6.0118548789   -6.0782403188    2.5810984261
N        7.3704854235   -7.5087985457    5.4822942200
N        4.9307390305   -4.5511080636    5.6723247495
N        5.0741256632   -4.9692943738    4.4564309380
O        5.1015829660   -5.4622295959    1.8342575484
Cl       8.6737783312   -5.5189114919   10.2091166828
Cl       5.0137679491   -8.2171493234    0.5094907645
Cl       7.7743000160   -3.3196615396    5.3105455384
H       10.4370922849   -7.2755660119    1.7778605229
H        9.8055183028   -8.9566043645    0.0628811554
H        8.6987997029   -5.9648690309    2.9218158936
H        4.3976230016   -5.8296351853    7.8705180927
H        7.4152670476   -9.3252088429   -0.4746393611
H        5.9280723529   -6.2467470263    9.7694835860
H        9.0375038355   -4.1366913594    7.7221675390
H        4.5071291384   -4.9520842265    2.4144662844
30   

C        6.8955024577   -6.6818074657    4.7914499320
C        9.3836007497   -7.5114990468    1.4525025871
C        8.9724713369   -8.4768887213    0.5357326366
C        8.4329529793   -6.7334300675    2.1171992778
C        5.3676715796   -5.5938570690    7.8166950153
C        7.6103318348   -8.6611708961    0.2908913757
C        6.2388699612   -5.7793968289    8.8919920593
C        7.8708011977   -4.3974663487    7.7943361327
C        7.0535254982   -6.9077909647    1.8845080848
C        5.7402156440   -4.8226116982    6.7082113874
C        7.5017914932   -5.1868701201    8.8879062291
C        6.6435420682   -7.8908441574    0.9518193951
C        7.0087954033   -4.1950288256    6.7067853772
C        6.0229157525   -5.9186130978    3.9547775861
C        6.0666587510   -6.0516126296    2.5735291312
N        7.6236345375   -7.3091383508    5.4513858776
N        4.8213377324   -4.6769593069    5.6753427934
N        5.0048884089   -5.0759861621    4.4577165072
O        5.2483088676   -5.3344237512    1.8103714617
Cl       8.5969228696   -5.4217300634   10.2271720126
Cl       4.9503043481   -8.2057215411    0.6222929383
Cl       7.5310117807   -3.1644014169    5.3867777600
H       10.4394614398   -7.3613370595    1.6489561747
H        9.7064290073   -9.0831510122    0.0161113561
H        8.7729810278   -5.9766923293    2.8159658159
H        4.3903745687   -6.0634233224    7.8299085576
H        7.2886838273   -9.4149973570   -0.4183066614
H        5.9363609556   -6.3909189468    9.7343269653
H        8.8480087461   -3.9309295112    7.7890227231
H        4.6524340285   -4.8172707850    2.3829956212
