24   
Generated by ForceBalance from scan.xyz: Frame 1 of 24
C        2.0278916785   -0.6521303234    0.2406150515
C        0.9700405765    0.2692933016    0.3688117940
C        3.2858611332   -0.3233708835    0.7256344481
C        1.1687297545    1.5044303722    0.9749328602
C        4.7917197011    1.3203327155    1.8661830350
C        3.5171593409    0.9229642815    1.3455031729
C        5.0233344255    2.5284001282    2.4690102178
C        2.4433287023    1.8387523726    1.4668881269
C        3.9131044263    3.5024775050    2.6054017530
C        6.3817819452    2.8078105902    2.9568059997
C        8.1595528599    3.9703205729    3.9112824646
N        6.7506810746    3.8774866443    3.5452558191
N        2.6930113075    3.0495131057    2.0756865165
O        3.9648700974    4.6146450276    3.1151141624
H        1.8567288275   -1.6129983998   -0.2353232497
H       -0.0160619666    0.0146012105   -0.0100347252
H        4.1114842634   -1.0251575414    0.6334585299
H        0.3482147647    2.2116432587    1.0710648792
H        5.6176461979    0.6157728313    1.7731330487
H        7.0865192201    1.9748981739    2.7711228758
H        8.2971807801    4.7844440519    4.6274797659
H        8.7541351158    4.2270824551    3.0239785533
H        8.5663924350    3.0388192535    4.3316800043
H        1.9387161992    3.7224736986    2.1736108738
24   
Generated by ForceBalance from scan.xyz: Frame 2 of 24
C        2.0206531668   -0.6631919643    0.2587860689
C        0.9694670122    0.2681790559    0.3683594271
C        3.2775962722   -0.3378166059    0.7487701777
C        1.1732698868    1.5092083483    0.9606126850
C        4.7884178219    1.3082511177    1.8796793292
C        3.5144203525    0.9141997187    1.3549110139
C        5.0251408982    2.5218438157    2.4689792927
C        2.4469744461    1.8396596307    1.4574259394
C        3.9215703429    3.5057506923    2.5859437453
C        6.3826491499    2.7974413351    2.9622415947
C        8.1598335936    3.9688420524    3.9064944606
N        6.7568653440    3.8717505720    3.5383594892
N        2.7018372390    3.0559177402    2.0531136354
O        3.9785434755    4.6233498834    3.0833091059
H        1.8453206921   -1.6285112765   -0.2065202991
H       -0.0159337206    0.0165117406   -0.0143018974
H        4.0983896991   -1.0469790705    0.6711189246
H        0.3576066033    2.2238292948    1.0421910453
H        5.6095076144    0.5963320378    1.8010735149
H        7.0830380821    1.9572824960    2.7947097711
H        8.2595825056    4.5982102240    4.7958296125
H        8.6967660159    4.4898343035    3.1023696540
H        8.6539570571    2.9989705056    4.0763676437
H        1.9520185554    3.7356334204    2.1378005772
24   
Generated by ForceBalance from scan.xyz: Frame 3 of 24
C        2.0112052036   -0.6668591503    0.2838754406
C        0.9643863309    0.2708527121    0.3802757311
C        3.2689868958   -0.3409296960    0.7713178805
C        1.1725938367    1.5185754215    0.9567318491
C        4.7858550706    1.3122533257    1.8828475119
C        3.5105061626    0.9177234554    1.3616130195
C        5.0272137745    2.5321129822    2.4568542971
C        2.4472357960    1.8493667953    1.4508592126
C        3.9282522291    3.5225932267    2.5595695743
C        6.3851247458    2.8072057621    2.9499052935
C        8.1578811369    3.9773179174    3.9038552591
N        6.7645857454    3.8874464646    3.5108541758
N        2.7069485121    3.0720385513    2.0312108777
O        3.9902983329    4.6463259973    3.0424276003
H        1.8319600894   -1.6372365268   -0.1692706358
H       -0.0216450168    0.0187308655   -0.0004335018
H        4.0866856374   -1.0546949580    0.7038716259
H        0.3600304615    2.2378252221    1.0280058261
H        5.6036643414    0.5955157453    1.8144951793
H        7.0829433911    1.9628554018    2.7941679944
H        8.2199616001    4.3920154587    4.9157692835
H        8.6599852246    4.6975100711    3.2451309245
H        8.7083988875    3.0225214909    3.8630207285
H        1.9603098012    3.7564015644    2.1059995478
24   
Generated by ForceBalance from scan.xyz: Frame 4 of 24
C        2.0055856931   -0.6783116201    0.3076129026
C        0.9612295043    0.2633489082    0.3915075023
C        3.2647301536   -0.3517016654    0.7911106560
C        1.1743530222    1.5171913485    0.9526323995
C        4.7867959420    1.3099984919    1.8822358362
C        3.5101478251    0.9133804468    1.3657752559
C        5.0318924347    2.5359340899    2.4414374872
C        2.4500119856    1.8496645579    1.4430540583
C        3.9363476159    3.5313627215    2.5316847139
C        6.3901427672    2.8115902422    2.9335158298
C        8.1584309041    3.9750062712    3.9040840699
N        6.7744810960    3.8978766597    3.4789630805
N        2.7137655078    3.0785578056    2.0082406747
O        4.0020832793    4.6606842203    3.0008404636
H        1.8231455299   -1.6535897154   -0.1335277722
H       -0.0255356266    0.0098199111    0.0135888949
H        4.0798342081   -1.0692381919    0.7326245482
H        0.3644457292    2.2402556580    1.0148028123
H        5.6022406277    0.5897709998    1.8228645105
H        7.0857772557    1.9639257893    2.7864072221
H        8.1867098849    4.1534950750    4.9856364593
H        8.6288250814    4.8430559345    3.4278615213
H        8.7568055864    3.0757919562    3.6779197575
H        1.9694669975    3.7663675284    2.0741997355
24   
Generated by ForceBalance from scan.xyz: Frame 5 of 24
C        1.9996436546   -0.6857954847    0.3311053980
C        0.9590178143    0.2609806929    0.4028739915
C        3.2589370678   -0.3565311252    0.8123552023
C        1.1750736025    1.5209732866    0.9489454011
C        4.7856325569    1.3132290222    1.8849526256
C        3.5082200438    0.9145260304    1.3720622332
C        5.0343136576    2.5449975267    2.4296947744
C        2.4512039091    1.8552695584    1.4368609675
C        3.9418250794    3.5449097480    2.5071864806
C        6.3924431102    2.8214437243    2.9213105158
C        8.1563950226    3.9800036442    3.9056908153
N        6.7801306849    3.9152676067    3.4491130844
N        2.7183593462    3.0899864360    1.9875404241
O        4.0106535707    4.6794429047    2.9630421601
H        1.8144700170   -1.6657386245   -0.0984528781
H       -0.0281905817    0.0062958992    0.0269424649
H        4.0718893352   -1.0772022687    0.7635394813
H        0.3673367872    2.2472444457    1.0013050787
H        5.5987625272    0.5896723083    1.8350840488
H        7.0851656435    1.9693616436    2.7854964820
H        8.1668411512    3.9138888042    5.0010443579
H        8.5853113330    4.9492025805    3.6320733651
H        8.8011708759    3.1758974964    3.5118607287
H        1.9762701393    3.7809897896    2.0444263906
24   
Generated by ForceBalance from scan.xyz: Frame 6 of 24
C        2.0952299333   -0.4351281498   -0.1157034768
C        0.9761388705    0.2893086437    0.3395543174
C        3.3659136221   -0.0652026552    0.3018442118
C        1.1270531552    1.3696572348    1.2012630167
C        4.8353385071    1.4563928853    1.6415113615
C        3.5497664498    1.0269689143    1.1761808577
C        5.0213836992    2.5151930080    2.4903003632
C        2.4145052937    1.7454477993    1.6250918353
C        3.8457620281    3.2803844793    2.9721100525
C        6.3966873055    2.8460057447    2.8918208045
C        8.1458170496    3.9281167810    3.9838722508
N        6.7314410826    3.8018277321    3.6665322759
N        2.6179741677    2.8082879714    2.4783442862
O        3.8520137728    4.2438524235    3.7278510947
H        1.9611190292   -1.2766895674   -0.7886717798
H       -0.0204011175    0.0025830770    0.0147666101
H        4.2389968647   -0.6151741364   -0.0415118084
H        0.2589887384    1.9247697870    1.5490030567
H        5.7084973055    0.9037471235    1.2960100578
H        7.1525565197    2.1754653322    2.4404192448
H        8.3645786891    3.3383650961    4.8835088015
H        8.3846555322    4.9733961455    4.1983124352
H        8.8120231425    3.5635989619    3.1849242030
H        1.8192406111    3.3385616748    2.8134532310
24   
Generated by ForceBalance from scan.xyz: Frame 7 of 24
C        2.0946290104   -0.4458982776   -0.0988076490
C        0.9769578724    0.2914919222    0.3388414048
C        3.3642736814   -0.0794596678    0.3248878064
C        1.1279554972    1.3809201905    1.1890306300
C        4.8329323657    1.4481761106    1.6587498262
C        3.5484847831    1.0217027776    1.1878313085
C        5.0187778623    2.5159898956    2.4964412135
C        2.4144924453    1.7529682881    1.6189250658
C        3.8448204423    3.2950338820    2.9601361635
C        6.3928703413    2.8428206177    2.9042425202
C        8.1480831019    3.9315497638    3.9804867140
N        6.7274761552    3.8057408584    3.6704996958
N        2.6184339272    2.8243082388    2.4612960607
O        3.8509969063    4.2670856539    3.7047274621
H        1.9602607941   -1.2944173832   -0.7629361824
H       -0.0188254294    0.0076400882    0.0092562000
H        4.2363920914   -0.6392490810   -0.0047752350
H        0.2608541826    1.9458686508    1.5230730927
H        5.7052903501    0.8858291480    1.3270990372
H        7.1462426019    2.1597466216    2.4673103372
H        8.4470141785    3.1609424887    4.7033130949
H        8.3418094410    4.9106654772    4.4247471994
H        8.7903867937    3.8131458650    3.0946929256
H        1.8204547072    3.3635493493    2.7836135750
24   
Generated by ForceBalance from scan.xyz: Frame 8 of 24
C        2.0948854920   -0.4621350314   -0.0862192743
C        0.9786343210    0.2895841227    0.3302438185
C        3.3636060717   -0.1017780571    0.3453508270
C        1.1300649925    1.3883441469    1.1682080918
C        4.8308913883    1.4300428976    1.6751035968
C        3.5477150581    1.0087122020    1.1962481439
C        5.0174013301    2.5067209583    2.5012856173
C        2.4154620457    1.7546888172    1.6063615307
C        3.8453149688    3.3016153781    2.9424039396
C        6.3901466619    2.8281519795    2.9176471557
C        8.1508488190    3.9338010415    3.9668856215
N        6.7240405158    3.7932280396    3.6818280260
N        2.6199522472    2.8348297910    2.4372086592
O        3.8520499156    4.2833166450    3.6741417565
H        1.9600067574   -1.3178056836   -0.7409768504
H       -0.0160078000    0.0096983433   -0.0061311029
H        4.2341881169   -0.6730817744    0.0317148476
H        0.2644831356    1.9647273443    1.4862841943
H        5.7017091553    0.8561418526    1.3595745079
H        7.1415817697    2.1338775182    2.4953283913
H        8.5562236798    3.0386549017    4.4583283855
H        8.3056217301    4.7865861180    4.6321224686
H        8.7315624306    4.1056453984    3.0502069996
H        1.8234113726    3.3849367838    2.7443848902
24   
Generated by ForceBalance from scan.xyz: Frame 9 of 24
C        2.0909562733   -0.4757233072   -0.0728883426
C        0.9789017724    0.2922261659    0.3247104686
C        3.3587040723   -0.1216690479    0.3666269439
C        1.1330290928    1.3995040506    1.1509531539
C        4.8290135349    1.4116227437    1.6919072526
C        3.5462560272    0.9970478656    1.2059706706
C        5.0180868154    2.4964284180    2.5066924833
C        2.4177353266    1.7588370622    1.5967728011
C        3.8501202716    3.3079587921    2.9276290215
C        6.3904080489    2.8113514987    2.9297917731
C        8.1511230915    3.9379201024    3.9563693664
N        6.7250168844    3.7802909849    3.6887140316
N        2.6250793108    2.8467902390    2.4167026853
O        3.8600610256    4.2982175443    3.6477926261
H        1.9537751796   -1.3378809180   -0.7186450095
H       -0.0153473554    0.0180919531   -0.0174326991
H        4.2266079950   -0.7049484852    0.0680553267
H        0.2701014977    1.9878473785    1.4540307821
H        5.6971262285    0.8256774872    1.3914311644
H        7.1397922730    2.1046092940    2.5251435465
H        8.6529573730    2.9886509984    4.1963822991
H        8.2831787409    4.6134773562    4.8057535969
H        8.6531978945    4.3913422609    3.0920197404
H        1.8310907733    3.4080388154    2.7100041600
24   
Generated by ForceBalance from scan.xyz: Frame 10 of 24
C        2.0871704405   -0.4886041527   -0.0564971644
C        0.9774444507    0.2912969469    0.3239171000
C        3.3550920424   -0.1394049442    0.3865742550
C        1.1354711865    1.4070126172    1.1379423531
C        4.8278438050    1.3991959638    1.7033288132
C        3.5453956647    0.9878339997    1.2137004966
C        5.0190089169    2.4924418631    2.5060944127
C        2.4199175996    1.7622669864    1.5878598200
C        3.8545537060    3.3175052722    2.9097988628
C        6.3910780664    2.8032064063    2.9337744439
C        8.1509076265    3.9398163235    3.9500736417
N        6.7298018140    3.7780333147    3.6828609265
N        2.6299924970    2.8584413407    2.3961431428
O        3.8670346207    4.3161455319    3.6184359393
H        1.9479054954   -1.3573777090   -0.6928157372
H       -0.0165709978    0.0203008120   -0.0215002922
H        4.2203982723   -0.7327478147    0.1004876589
H        0.2752068704    2.0054391005    1.4285219741
H        5.6937727280    0.8036108063    1.4157926108
H        7.1384913443    2.0861142244    2.5443645093
H        8.7175195706    2.9948834017    3.9438566640
H        8.2785799811    4.4072260484    4.9313337920
H        8.5854396214    4.6223197980    3.2088743253
H        1.8380525730    3.4286068353    2.6774771844
24   
Generated by ForceBalance from scan.xyz: Frame 11 of 24
C        2.0817185416   -0.5009886514   -0.0349904691
C        0.9748580716    0.2891395346    0.3323888004
C        3.3498801200   -0.1517611319    0.4073813095
C        1.1354266245    1.4145668093    1.1324449132
C        4.8262088386    1.3966464736    1.7083853111
C        3.5430856695    0.9851246399    1.2204905043
C        5.0204261587    2.4989655995    2.4976920821
C        2.4202418317    1.7695816519    1.5814249218
C        3.8586311841    3.3344800003    2.8869536038
C        6.3926923367    2.8080180276    2.9267308970
C        8.1496418933    3.9427789368    3.9501688354
N        6.7351242128    3.7900579148    3.6642195554
N        2.6331105561    2.8751853476    2.3761003840
O        3.8742232098    4.3423957962    3.5823699126
H        1.9401701977   -1.3772156128   -0.6605061052
H       -0.0194317234    0.0183501491   -0.0123729150
H        4.2132698241   -0.7526697041    0.1314930972
H        0.2770798025    2.0206047895    1.4127598604
H        5.6900171906    0.7932494201    1.4309747148
H        7.1389703394    2.0844381304    2.5476809938
H        8.7594747128    3.0534256711    3.7181925931
H        8.2740862946    4.1817773049    5.0119894422
H        8.5365511491    4.7997490625    3.3851045330
H        1.8431904160    3.4528567153    2.6476445982
24   
Generated by ForceBalance from scan.xyz: Frame 12 of 24
C        2.0790020750   -0.5175201673   -0.0159491196
C        0.9746426966    0.2814641080    0.3396034515
C        3.3472854011   -0.1671653950    0.4251511366
C        1.1368616202    1.4161481119    1.1261512418
C        4.8264684951    1.3916797506    1.7100794607
C        3.5427546005    0.9788962425    1.2247295084
C        5.0231183996    2.5026476819    2.4864667139
C        2.4220204379    1.7718213830    1.5735615686
C        3.8633999261    3.3466411387    2.8632724303
C        6.3953795822    2.8108915063    2.9164371184
C        8.1495256596    3.9376266843    3.9539534670
N        6.7409478744    3.8033724262    3.6381799565
N        2.6371866742    2.8862833747    2.3551671526
O        3.8812871248    4.3625295311    3.5469661986
H        1.9355648920   -1.4008103717   -0.6310319465
H       -0.0198516889    0.0100627875   -0.0040450131
H        4.2091845142   -0.7743905626    0.1586064756
H        0.2800024153    2.0285817253    1.3969984610
H        5.6886024464    0.7818344901    1.4417197491
H        7.1402473070    2.0806625689    2.5476856717
H        8.7912632007    3.1481692725    3.5266777746
H        8.2695805430    3.9401098844    5.0437445073
H        8.5019056822    4.9123437568    3.5963090486
H        1.8488530491    3.4700873852    2.6180849562
24   
Generated by ForceBalance from scan.xyz: Frame 13 of 24
C        2.0769822169   -0.5340943455    0.0036031662
C        0.9744848166    0.2728083810    0.3468193619
C        3.3450921847   -0.1816749997    0.4435453133
C        1.1385470913    1.4166461521    1.1196233090
C        4.8264495294    1.3886845559    1.7124312027
C        3.5426503103    0.9735476759    1.2293583149
C        5.0255590645    2.5083587717    2.4756449914
C        2.4236264319    1.7742022508    1.5657706755
C        3.8670071670    3.3597633947    2.8393725851
C        6.3975492767    2.8165586057    2.9064124052
C        8.1512275722    3.9315810805    3.9568128961
N        6.7460136859    3.8196407824    3.6120865138
N        2.6402683524    2.8976002058    2.3340384856
O        3.8861297981    4.3836352001    3.5109179628
H        1.9323126283   -1.4245220998   -0.6008211045
H       -0.0201093875    0.0003237558    0.0043262072
H        4.2057699626   -0.7947029529    0.1865446135
H        0.2829255255    2.0349674946    1.3808146302
H        5.6871956982    0.7728996275    1.4533981457
H        7.1402932554    2.0789717161    2.5479824924
H        8.8184261631    3.2844601000    3.3628906879
H        8.2763125423    3.6938274954    5.0203992395
H        8.4683400169    4.9719199269    3.8257059287
H        1.8531905437    3.4870322042    2.5880601041
24   
Generated by ForceBalance from scan.xyz: Frame 14 of 24
C        2.0754058145   -0.5482824011    0.0232759191
C        0.9743990688    0.2666531899    0.3520857950
C        3.3438025803   -0.1963477391    0.4627792409
C        1.1410356520    1.4192367117    1.1111819040
C        4.8268126877    1.3838508521    1.7171481171
C        3.5431003595    0.9678109157    1.2348314232
C        5.0269985265    2.5123931431    2.4671212570
C        2.4261042238    1.7770296647    1.5572643987
C        3.8711569042    3.3735082699    2.8166735218
C        6.3983467729    2.8198339150    2.8995828680
C        8.1520906916    3.9290107937    3.9562589536
N        6.7467604128    3.8326680777    3.5916653882
N        2.6448459927    2.9089680602    2.3121960117
O        3.8918364164    4.4055182460    3.4755327223
H        1.9291760587   -1.4455511334   -0.5705291133
H       -0.0200793249   -0.0061740668    0.0094772690
H        4.2027241626   -0.8161409610    0.2162852446
H        0.2872043132    2.0443642441    1.3617840600
H        5.6861734076    0.7616471761    1.4689896686
H        7.1387111273    2.0742768260    2.5524732472
H        8.8362502150    3.4685268898    3.2255902912
H        8.3070090523    3.4604389221    4.9362652030
H        8.4228914015    4.9844659568    4.0581604359
H        1.8591449226    3.5045137516    2.5559606294
24   
Generated by ForceBalance from scan.xyz: Frame 15 of 24
C        2.0764859600   -0.5671667068    0.0396484121
C        0.9775245734    0.2575418626    0.3504768693
C        3.3435953969   -0.2152217523    0.4827828882
C        1.1451542789    1.4193423037    1.0951727122
C        4.8265607783    1.3738373310    1.7253463071
C        3.5437616720    0.9582206780    1.2404736989
C        5.0277372099    2.5114242623    2.4614664980
C        2.4288924045    1.7773266388    1.5449555829
C        3.8740817449    3.3833925078    2.7913506084
C        6.3977294350    2.8177471584    2.8982173426
C        8.1568791614    3.9288635502    3.9440045954
N        6.7456226981    3.8358135904    3.5832467536
N        2.6482414463    2.9182823533    2.2859357724
O        3.8958513141    4.4246553713    3.4352726928
H        1.9297091410   -1.4716095023   -0.5430388074
H       -0.0161076293   -0.0149421963    0.0051474264
H        4.2010632189   -0.8423775831    0.2502503486
H        0.2927596133    2.0518180196    1.3317969647
H        5.6842072081    0.7438762429    1.4911572689
H        7.1354449040    2.0638250246    2.5632955201
H        8.8320502694    3.7020226109    3.1055356195
H        8.3845670326    3.2444642568    4.7713530754
H        8.3735152609    4.9441123635    4.2870754897
H        1.8641744378    3.5212981348    2.5162780113
24   
Generated by ForceBalance from scan.xyz: Frame 16 of 24
C        2.0731697295   -0.5749690248    0.0566202933
C        0.9780310434    0.2623182672    0.3466218572
C        3.3388571408   -0.2283124112    0.5079514883
C        1.1483572285    1.4314707653    1.0790924625
C        4.8226586112    1.3640971192    1.7469577847
C        3.5418405954    0.9523467604    1.2536115975
C        5.0263282868    2.5089591336    2.4711436478
C        2.4307303209    1.7839130086    1.5371147461
C        3.8765746766    3.3940120159    2.7791307050
C        6.3947468294    2.8109092602    2.9152525239
C        8.1570528002    3.9390765923    3.9374863466
N        6.7401938978    3.8342172010    3.5937291626
N        2.6525188158    2.9316760719    2.2667185721
O        3.9000449254    4.4427199342    3.4107576422
H        1.9245215024   -1.4851015049   -0.5166544443
H       -0.0144401502   -0.0060407989   -0.0052261944
H        4.1931575262   -0.8654022384    0.2913360372
H        0.2991410011    2.0738748790    1.2998776378
H        5.6774960954    0.7245576258    1.5291090919
H        7.1295053473    2.0456605002    2.5996783862
H        8.7901901621    3.9752137456    3.0403223331
H        8.4890835542    3.0896750259    4.5501371342
H        8.3248051107    4.8556187341    4.5081354243
H        1.8710135267    3.5434709051    2.4820768362
24   
Generated by ForceBalance from scan.xyz: Frame 17 of 24
C        2.0721828620   -0.5900651851    0.0697641345
C        0.9810960736    0.2598905460    0.3373051405
C        3.3355289138   -0.2480352666    0.5310946581
C        1.1528428556    1.4366277592    1.0572172643
C        4.8189940235    1.3467480354    1.7669472500
C        3.5401095834    0.9400438555    1.2643897423
C        5.0238737998    2.4987318250    2.4793121827
C        2.4329315120    1.7842070035    1.5252244776
C        3.8784149795    3.3973611295    2.7629598337
C        6.3900672272    2.7956889390    2.9337676757
C        8.1575986093    3.9417981654    3.9269634344
N        6.7381902960    3.8193375905    3.6099859245
N        2.6560577346    2.9391333876    2.2430497919
O        3.9039327835    4.4538004084    3.3815360331
H        1.9223134161   -1.5059866605   -0.4939051516
H       -0.0096187022   -0.0046202179   -0.0223093615
H        4.1868652307   -0.8947345089    0.3320326749
H        0.3065521197    2.0885981707    1.2605317880
H        5.6707522902    0.6974263400    1.5666033197
H        7.1218986660    2.0212122952    2.6342855989
H        8.7186420926    4.2535066864    3.0360472656
H        8.6001485988    2.9965098695    4.2759556976
H        8.2967459342    4.6999940967    4.7010987273
H        1.8774380000    3.5600960748    2.4420190739
24   
Generated by ForceBalance from scan.xyz: Frame 18 of 24
C        2.0663802087   -0.5983079901    0.0884754839
C        0.9799212478    0.2628230756    0.3385458912
C        3.3291372229   -0.2598360725    0.5539700696
C        1.1540975977    1.4472520988    1.0451143936
C        4.8150856597    1.3393841246    1.7802397529
C        3.5366123902    0.9357858063    1.2740403168
C        5.0233709282    2.4985203288    2.4796736159
C        2.4337494185    1.7908371785    1.5171206240
C        3.8827573637    3.4087969673    2.7445372403
C        6.3889899922    2.7918751234    2.9389425823
C        8.1559035230    3.9478876010    3.9212774540
N        6.7410551651    3.8196467621    3.6063653643
N        2.6606575739    2.9528191061    2.2223436886
O        3.9121821396    4.4727200155    3.3501455657
H        1.9135183886   -1.5199225315   -0.4650216814
H       -0.0101401796    0.0007354714   -0.0245763346
H        4.1772190325   -0.9148454310    0.3685978425
H        0.3110499760    2.1075280385    1.2347325888
H        5.6634455147    0.6815938087    1.5936211288
H        7.1181912202    2.0093657262    2.6548029766
H        8.6538788236    4.5022303805    3.1151402191
H        8.6759609829    2.9812370964    4.0230347144
H        8.2770275874    4.5170600526    4.8467607186
H        1.8852598446    3.5817338524    2.4084613780
24   
Generated by ForceBalance from scan.xyz: Frame 19 of 24
C        2.0593999989   -0.6065100695    0.1096491681
C        0.9759132823    0.2623472079    0.3454442532
C        3.3228960194   -0.2699127826    0.5745764231
C        1.1547910789    1.4540775137    1.0383975817
C        4.8131051725    1.3362886667    1.7861262755
C        3.5340365047    0.9331953526    1.2808862267
C        5.0249104734    2.5025864614    2.4722399279
C        2.4347948448    1.7966551939    1.5102093501
C        3.8882756373    3.4216855812    2.7227175527
C        6.3906060511    2.7940986563    2.9332537126
C        8.1554605648    3.9493309154    3.9199805523
N        6.7478318904    3.8286001248    3.5871225888
N        2.6655147520    2.9658651554    2.2021980155
O        3.9215477893    4.4925682488    3.3158763013
H        1.9034982263   -1.5338725580   -0.4332581177
H       -0.0143468510    0.0008935048   -0.0176460368
H        4.1679994091   -0.9316035829    0.3995331383
H        0.3147674074    2.1210669950    1.2176067913
H        5.6586710523    0.6720285481    1.6100603509
H        7.1173308790    2.0051807351    2.6615894229
H        8.6090018782    4.7014470051    3.2620302608
H        8.7278816870    3.0126754543    3.8084552824
H        8.2564881960    4.3103507104    4.9483963106
H        1.8927733907    3.6008807093    2.3783580225
24   
Generated by ForceBalance from scan.xyz: Frame 20 of 24
C        2.0534744283   -0.6214210814    0.1303668022
C        0.9739280166    0.2551611641    0.3553124835
C        3.3175620476   -0.2833125603    0.5925663931
C        1.1563730853    1.4546304507    1.0338803734
C        4.8135794156    1.3315983699    1.7856035863
C        3.5332112902    0.9273525135    1.2844877578
C        5.0294766518    2.5050667245    2.4579724163
C        2.4373141877    1.7979207524    1.5025571755
C        3.8962875200    3.4314489762    2.6966282112
C        6.3956666078    2.7958758549    2.9182899841
C        8.1565605756    3.9442086090    3.9198933598
N        6.7567111100    3.8379571330    3.5578324302
N        2.6721199764    2.9745325984    2.1805402614
O        3.9335631976    4.5092874850    3.2768815498
H        1.8943141531   -1.5546678542   -0.4014376622
H       -0.0171225167   -0.0066492836   -0.0053068674
H        4.1603261574   -0.9501972434    0.4262648531
H        0.3187025528    2.1268958691    1.2042220634
H        5.6566469026    0.6619879384    1.6180588190
H        7.1204116046    2.0023567133    2.6553771548
H        8.5742993395    4.8462507189    3.4570315726
H        8.7719370111    3.0771889464    3.6244377220
H        8.2338738857    4.0807415827    5.0048075366
H        1.9018030025    3.6147347854    2.3483460770
24   
Generated by ForceBalance from scan.xyz: Frame 21 of 24
C        2.0475157365   -0.6306964641    0.1544534575
C        0.9698572590    0.2511483091    0.3675668893
C        3.3126084323   -0.2911179687    0.6128582091
C        1.1562403571    1.4582059621    1.0314298923
C        4.8126747611    1.3343665847    1.7864908097
C        3.5314408809    0.9273587049    1.2898881307
C        5.0316613643    2.5153973444    2.4445482754
C        2.4379118349    1.8036471091    1.4965625262
C        3.9008262393    3.4476288434    2.6715632345
C        6.3980341139    2.8072574309    2.9034115747
C        8.1565490025    3.9457627384    3.9199913528
N        6.7634745689    3.8584364734    3.5255575016
N        2.6757667679    2.9878364627    2.1601269781
O        3.9405965368    4.5322019392    3.2389471791
H        1.8859736832   -1.5699774792   -0.3658570760
H       -0.0217821689   -0.0122473095    0.0096851985
H        4.1533991987   -0.9625632526    0.4550845575
H        0.3205984776    2.1351037959    1.1931026576
H        5.6539605621    0.6604352590    1.6275386968
H        7.1200584319    2.0079803831    2.6505528068
H        8.5362573606    4.9446472715    3.6794851742
H        8.8108892326    3.1838026864    3.4643126195
H        8.2164395409    3.8487279752    5.0116342162
H        1.9071525057    3.6321826877    2.3196652657
24   
Generated by ForceBalance from scan.xyz: Frame 22 of 24
C        2.0405499839   -0.6333808573    0.1782890236
C        0.9660087293    0.2554826550    0.3774921278
C        3.3052561740   -0.2934360444    0.6374979391
C        1.1558449031    1.4691317897    1.0282621488
C        4.8086694680    1.3390435569    1.7976173065
C        3.5274472827    0.9316553258    1.3014399853
C        5.0304332186    2.5267876253    2.4427606996
C        2.4370901765    1.8149987124    1.4943003051
C        3.9025281043    3.4657737724    2.6566549267
C        6.3962364467    2.8182217349    2.9027718050
C        8.1532105201    3.9531682212    3.9262249203
N        6.7638258260    3.8801634915    3.5054822673
N        2.6774854554    3.0056109149    2.1453076250
O        3.9443304256    4.5554447583    3.2139356705
H        1.8769587244   -1.5778920621   -0.3318234806
H       -0.0255697480   -0.0075650826    0.0191704317
H        4.1437307434   -0.9701568896    0.4903534214
H        0.3225603642    2.1513794918    1.1791695171
H        5.6477252483    0.6599829344    1.6490080427
H        7.1143465535    2.0104366322    2.6655860110
H        8.4802896802    4.9972041680    3.9210838599
H        8.8432370024    3.3411488370    3.3239680950
H        8.2210617538    3.6178385196    4.9701001930
H        1.9108470766    3.6545083849    2.2956481601
24   
Generated by ForceBalance from scan.xyz: Frame 23 of 24
C        2.0386068407   -0.6400398937    0.2024286390
C        0.9674209123    0.2570909403    0.3819019132
C        3.3020012539   -0.3006674016    0.6655487440
C        1.1585812457    1.4787479042    1.0170615937
C        4.8055249448    1.3398426618    1.8134167854
C        3.5256526635    0.9324640406    1.3139735954
C        5.0295529591    2.5351477647    2.4439015735
C        2.4385807834    1.8240212438    1.4869755852
C        3.9051433553    3.4831903686    2.6360551986
C        6.3934880178    2.8252311182    2.9096130053
C        8.1555693160    3.9600554810    3.9248437789
N        6.7600200644    3.8915437868    3.5056226103
N        2.6809444791    3.0222442021    2.1229531829
O        3.9488801412    4.5809170372    3.1768828875
H        1.8734182022   -1.5906257171   -0.2957382713
H       -0.0229713989   -0.0059264702    0.0203070245
H        4.1379029276   -0.9836963118    0.5336345701
H        0.3278430165    2.1672860286    1.1527284687
H        5.6418266234    0.6542310715    1.6801245923
H        7.1084873947    2.0110648976    2.6842885550
H        8.4106848069    4.9938375281    4.1716019985
H        8.8596454688    3.5777087099    3.1712304939
H        8.2930194381    3.3733828973    4.8433399226
H        1.9169639394    3.6775237849    2.2584846044
24   
Generated by ForceBalance from scan.xyz: Frame 24 of 24
C        2.0370031856   -0.6511371693    0.2189499313
C        0.9719734326    0.2581380176    0.3721974843
C        3.2966891265   -0.3155687719    0.6946501293
C        1.1637642751    1.4870557926    0.9930051226
C        4.7986259743    1.3270310644    1.8401590732
C        3.5218435628    0.9245401918    1.3291280764
C        5.0240342251    2.5291777485    2.4571220607
C        2.4403511345    1.8276999235    1.4753619599
C        3.9059145937    3.4899559707    2.6212078943
C        6.3845369412    2.8147754274    2.9349821105
C        8.1576609728    3.9630389916    3.9167008561
N        6.7513615645    3.8843886153    3.5251424946
N        2.6845877146    3.0324087133    2.0981517841
O        3.9518825592    4.5941230937    3.1484709828
H        1.8701750669   -1.6070407770   -0.2684104174
H       -0.0156512776   -0.0015421541    0.0008170070
H        4.1285554763   -1.0071782025    0.5836137820
H        0.3369928784    2.1841281502    1.1078524757
H        5.6306242268    0.6324895487    1.7275246272
H        7.0940227224    1.9899873279    2.7315509139
H        8.3444015405    4.9202808614    4.4091318052
H        8.8251682379    3.8894980097    3.0471737994
H        8.4289474830    3.1606835201    4.6165985797
H        1.9245617940    3.6958713199    2.2148075202
