14   

C       -0.3065396854    0.8554437293   -2.0520919052
C       -0.4546071975   -0.1050800792   -0.9694483587
C       -1.0805923113    0.5379187881   -3.1382643588
C       -1.3506898695   -1.1149877132   -1.2687436784
C       -1.7304182729   -2.2922533309   -0.4666153984
C       -1.3075171525   -2.3876783634    0.9916097225
O       -2.3294401386   -3.2374974564   -0.9720184232
S       -2.0199992969   -0.9296881852   -2.8906943413
H        0.3465387047    1.7205689964   -2.0057620852
H        0.0920366747   -0.0322564535   -0.0351013043
H       -1.1170630737    1.1170124178   -4.0534679686
H       -1.7454284578   -1.5604298156    1.5561736103
H       -0.2181728111   -2.3424554319    1.0665227725
H       -1.6537689846   -3.3325727591    1.4199440841
14   

C       -0.2946105160    0.8543321889   -2.0632393201
C       -0.3905704092   -0.1379795954   -1.0036018180
C       -1.1700010097    0.6058684657   -3.0889485229
C       -1.3587959404   -1.0927946966   -1.2525436759
C       -1.6833273090   -2.3078098064   -0.4759223624
C       -1.3076582597   -2.3896306201    0.9961708904
O       -2.1351530253   -3.3085596990   -1.0232198911
S       -2.1483021000   -0.8300496952   -2.8075629991
H        0.3985016316    1.6888539511   -2.0469832632
H        0.2474975929   -0.1298662992   -0.1262516016
H       -1.2565781054    1.2162369656   -3.9801424354
H       -1.8727161239   -1.6426183109    1.5597422632
H       -0.2378980012   -2.2061585892    1.1215223985
H       -1.5443188639   -3.3831431358    1.3874592735
14   

C       -0.2472445655    0.8028494225   -2.0890871295
C       -0.3015569375   -0.2145016959   -1.0503401806
C       -1.2328457419    0.6398430082   -3.0285910547
C       -1.3545341552   -1.0924862340   -1.2209316686
C       -1.6491226625   -2.3311886240   -0.4580830067
C       -1.3278509255   -2.4003596820    1.0281760158
O       -1.9728501424   -3.3657276587   -1.0291846102
S       -2.2696558341   -0.7407741862   -2.6857419894
H        0.4977597204    1.5908344401   -2.1228203484
H        0.4284709068   -0.2814381726   -0.2508290969
H       -1.3654164279    1.2803116507   -3.8925891687
H       -2.0969221693   -1.8640376763    1.5901562943
H       -0.3540732213   -1.9502037885    1.2322997473
H       -1.3089445787   -3.4428478553    1.3581945745
14   

C       -0.2100517514    0.7893737669   -2.1150062503
C       -0.2200324475   -0.2596222585   -1.1067707268
C       -1.2786349289    0.6981795992   -2.9701880796
C       -1.3235462433   -1.0812301735   -1.2088630145
C       -1.5776250923   -2.3475233285   -0.4612913751
C       -1.3629484100   -2.3849718245    1.0448111745
O       -1.7322831720   -3.4089119416   -1.0488497906
S       -2.3421916000   -0.6494142480   -2.5794989838
H        0.5642149841    1.5456081051   -2.1904771400
H        0.5749126658   -0.3935447785   -0.3806537023
H       -1.4553938927    1.3714240224   -3.8007092468
H       -2.2711942338   -2.0418347404    1.5470285086
H       -0.5321398693   -1.7361116243    1.3307167710
H       -1.1418119595   -3.4064268927    1.3665661645
14   

C       -0.6219275030    0.8800511621   -2.0639308399
C       -1.1450669118   -0.0649323251   -1.0889284289
C       -0.4755583837    0.3165118748   -3.3061608180
C       -1.4151212492   -1.2964541590   -1.6403818861
C       -1.8168223781   -2.5434715178   -0.9060892980
C       -3.1130234623   -2.5507924073   -0.1110925763
O       -1.0245455112   -3.4563687255   -0.7369375789
S       -0.9754225192   -1.3714224664   -3.3435719141
H       -0.3631405905    1.9071543356   -1.8290996396
H       -1.2772035066    0.1702112713   -0.0378270799
H       -0.0907400814    0.8407766231   -4.1729621929
H       -3.9398192005   -2.8261269460   -0.7709590484
H       -3.3060527578   -1.5595325576    0.3062361271
H       -3.0494596156   -3.2758561743    0.7049370924
14   

C       -0.4983549154    0.8467271677   -2.0643719266
C       -0.9173150948   -0.0855629361   -1.0284651517
C       -0.5620967638    0.2927297366   -3.3180262856
C       -1.2879360180   -1.3051362919   -1.5376537288
C       -1.7648391147   -2.5112642233   -0.7692471844
C       -3.2429069593   -2.6513837186   -0.4461934008
O       -0.9797236160   -3.3504274001   -0.3625347335
S       -1.1304418347   -1.3735920378   -3.2894562319
H       -0.1687142243    1.8608424171   -1.8643966427
H       -0.9267196688    0.1539087976    0.0300367471
H       -0.2907058784    0.8124291286   -4.2294029288
H       -3.8078276796   -2.7937183953   -1.3709678907
H       -3.5978240265   -1.7472445670    0.0549395258
H       -3.4046787530   -3.5116811137    0.2093170443
14   

C       -0.4076587869    0.8153552354   -2.0198469714
C       -0.7440421611   -0.0978614223   -0.9381253719
C       -0.6851423294    0.2832560078   -3.2532377751
C       -1.2369854488   -1.2979385216   -1.3913625990
C       -1.7865034570   -2.4130662445   -0.5485148739
C       -3.2534103637   -2.7944291168   -0.6763133837
O       -1.0475526772   -3.1403789562    0.0954182174
S       -1.3539875109   -1.3418407054   -3.1490877179
H        0.0114300196    1.8039513660   -1.8644062072
H       -0.6261285619    0.1430776205    0.1137090879
H       -0.5118082375    0.7962201005   -4.1919699080
H       -3.5480293479   -2.8230525884   -1.7279531766
H       -3.8664125221   -2.0557607729   -0.1534305786
H       -3.4252894602   -3.7787653155   -0.2319861855
14   

C       -0.3298011888    0.7853843983   -2.0242334526
C       -0.6382617849   -0.1261216702   -0.9330614708
C       -0.7584576524    0.3075287681   -3.2360580323
C       -1.2578311543   -1.2794122889   -1.3598061234
C       -1.8276026026   -2.3393563969   -0.4745410517
C       -3.2384163237   -2.8553050533   -0.7184208245
O       -1.1176405569   -2.9397640343    0.3196301895
S       -1.5396122017   -1.2641272307   -3.1004981360
H        0.1764195430    1.7354693311   -1.8893279450
H       -0.4155742373    0.0813245661    0.1091212036
H       -0.6319694092    0.8301725093   -4.1769315674
H       -3.3778869571   -3.1048263742   -1.7726914663
H       -3.9603660238   -2.0861885901   -0.4317057765
H       -3.4179165098   -3.7511606291   -0.1173454344
14   

C       -0.2647079826    0.7737440991   -2.0497133647
C       -0.5570472603   -0.1356684096   -0.9524829017
C       -0.8238452079    0.3581854148   -3.2309931324
C       -1.3000820959   -1.2283284570   -1.3470606837
C       -1.8651163358   -2.2571847922   -0.4338124941
C       -3.2149261646   -2.8930147382   -0.7337195716
O       -1.1824790589   -2.7286443510    0.4671185346
S       -1.7145183292   -1.1506292718   -3.0597652767
H        0.3239967990    1.6784302365   -1.9398242236
H       -0.2362301560    0.0278395974    0.0719930981
H       -0.7307740323    0.8911966052   -4.1699438841
H       -3.2312780041   -3.2895817370   -1.7515736630
H       -4.0030439014   -2.1434868051   -0.6237700333
H       -3.4052797792   -3.7116706950   -0.0339304044
14   

C       -0.2137619465    0.7509463469   -2.0810913629
C       -0.5107853899   -0.1501515131   -0.9782809578
C       -0.8788831120    0.4034154225   -3.2290912163
C       -1.3729220135   -1.1669913658   -1.3360935539
C       -1.9360842633   -2.1781790101   -0.4091852739
C       -3.2262194591   -2.9092290746   -0.7516648621
O       -1.3019172712   -2.5312447509    0.5789154469
S       -1.8816564608   -1.0283963167   -3.0194616268
H        0.4548258943    1.6013782710   -1.9983660726
H       -0.1073172096   -0.0367804609    0.0236805197
H       -0.8003439588    0.9431523427   -4.1655181279
H       -3.1512939985   -3.3661770649   -1.7413632283
H       -4.0607702307   -2.2032899496   -0.7391275675
H       -3.4160359283   -3.6950238508   -0.0150228192
14   

C       -0.1762614390    0.7332314754   -2.1015442385
C       -0.4698753351   -0.1626618289   -0.9935717124
C       -0.9431304358    0.4622562097   -3.2059994481
C       -1.4424016995   -1.0931795458   -1.3023089839
C       -1.9927736353   -2.1044403436   -0.3714735702
C       -3.2306134672   -2.9085897683   -0.7412661572
O       -1.4132207524   -2.3549658378    0.6803912698
S       -2.0445355655   -0.8868182503   -2.9474856923
H        0.5642061451    1.5247346524   -2.0534973044
H        0.0166174175   -0.1090460938   -0.0239221079
H       -0.8834571783    1.0116510248   -4.1381906594
H       -3.0722389335   -3.4250558590   -1.6912896183
H       -4.0907963030   -2.2398222670   -0.8292143021
H       -3.4373892982   -3.6518507778    0.0339461978
14   

C       -0.1398065741    0.6900776060   -2.1089646806
C       -0.4399870213   -0.2006549647   -0.9985703237
C       -0.9905633503    0.5043686909   -3.1687925325
C       -1.5113528857   -1.0332458531   -1.2567245076
C       -2.0595452104   -2.0468075813   -0.3281696986
C       -3.2471366832   -2.9084359439   -0.7313763127
O       -1.5579644205   -2.2042578899    0.7805844471
S       -2.1843064667   -0.7532483850   -2.8630563212
H        0.6659967923    1.4164067317   -2.0948131065
H        0.1140035845   -0.2147923933   -0.0643690018
H       -0.9405861364    1.0649883955   -4.0948498234
H       -3.0058454864   -3.4743285829   -1.6348290679
H       -4.1173844288   -2.2745640011   -0.9200969499
H       -3.4878394966   -3.6106359066    0.0718239754
14   

C       -0.1157380563    0.6562611785   -2.1057704658
C       -0.4080271488   -0.2373615760   -0.9956183574
C       -1.0562076999    0.5735373794   -3.1007510284
C       -1.5708550505   -0.9584949081   -1.1821617379
C       -2.1055814874   -1.9836147615   -0.2573902270
C       -3.2543507267   -2.8878282086   -0.6798455611
O       -1.6743232407   -2.0663163370    0.8881755346
S       -2.3297477950   -0.5842839657   -2.7300254066
H        0.7497227044    1.3096992381   -2.1385494638
H        0.2182710608   -0.3350487458   -0.1135867388
H       -1.0268536262    1.1532923517   -4.0158455352
H       -2.9306862536   -3.5344036411   -1.4996527490
H       -4.1060057790   -2.2854259403   -1.0056158604
H       -3.5660561709   -3.5122343109    0.1622362612
14   

C       -0.0996265743    0.6145419948   -2.1190409624
C       -0.3999016519   -0.2788660712   -1.0108762343
C       -1.1011045988    0.6344999661   -3.0558739420
C       -1.6328272759   -0.8873203105   -1.1334554190
C       -2.1730206403   -1.9205873837   -0.2173056566
C       -3.2578023219   -2.8800397345   -0.6852727415
O       -1.8476585908   -1.9289745745    0.9647551831
S       -2.4445275647   -0.4199903641   -2.6283276484
H        0.8151014840    1.1932344542   -2.1930389897
H        0.2723388820   -0.4587664291   -0.1770334350
H       -1.0772102026    1.2311144713   -3.9602302444
H       -2.8484814691   -3.5525462105   -1.4436750982
H       -4.0987218954   -2.3246402411   -1.1074928489
H       -3.6180589745   -3.4752873799    0.1585509693
14   

C       -0.0774823138    0.5527786005   -2.1178053931
C       -0.3906852830   -0.3332301495   -1.0072601032
C       -1.1242297504    0.6746392191   -2.9954196186
C       -1.6771755629   -0.8264753962   -1.0631013315
C       -2.2433077816   -1.8538892055   -0.1488016513
C       -3.2382415097   -2.8812225735   -0.6692693033
O       -2.0537401969   -1.7811944517    1.0589874196
S       -2.5267949045   -0.2695092520   -2.5050060619
H        0.8778648189    1.0531232568   -2.2364346100
H        0.3122366757   -0.5907440193   -0.2206246131
H       -1.1003998083    1.2837018852   -3.8914475989
H       -2.7337203563   -3.5569575686   -1.3648643844
H       -4.0652724830   -2.3845155040   -1.1819742240
H       -3.6403381793   -3.4659283337    0.1629403099
14   

C       -0.0683429201    0.4832867808   -2.1269907221
C       -0.3906636079   -0.4092954432   -1.0242410757
C       -1.1523693256    0.7269814189   -2.9308074840
C       -1.7159660733   -0.7826698754   -1.0095420520
C       -2.3234443515   -1.7980050239   -0.0974803990
C       -3.2064914868   -2.8988548291   -0.6670393310
O       -2.2862138867   -1.6511708156    1.1159005964
S       -2.6009025031   -0.1054129477   -2.3762236366
H        0.9189072202    0.9012883652   -2.2935202475
H        0.3351732232   -0.7554778780   -0.2947979069
H       -1.1299920045    1.3617984337   -3.8088196383
H       -2.5873096359   -3.6120825485   -1.2173821524
H       -3.9561657133   -2.4779684039   -1.3408742213
H       -3.7173416454   -3.4254506986    0.1440091322
14   

C       -0.0589762798    0.4168890614   -2.1765561285
C       -0.3938758657   -0.4943642497   -1.0927200614
C       -1.1637994384    0.7963977250   -2.8953904086
C       -1.7418161475   -0.7495755374   -1.0120213468
C       -2.4115914334   -1.7288531260   -0.0910236035
C       -3.1377655490   -2.9302334546   -0.6766143692
O       -2.5471705920   -1.4862142054    1.0974299167
S       -2.6463418813    0.0722736568   -2.2815037301
H        0.9503151731    0.7527460616   -2.3902157828
H        0.3403653460   -0.9321281771   -0.4237178730
H       -1.1375717366    1.4690500876   -3.7446522983
H       -2.4051314552   -3.6764298445   -0.9948056380
H       -3.7374559963   -2.6282226112   -1.5384331612
H       -3.7951494696   -3.3747147386    0.0758312923
14   

C       -0.6052853812    1.0091784797   -2.0888261589
C       -1.1464987589    0.3438660674   -0.9131341308
C       -0.5010075668    0.1617993175   -3.1629413409
C       -1.4240385114   -0.9810423145   -1.1402192483
C       -2.0007126556   -1.9753138371   -0.1647514271
C       -1.0666052942   -2.7431224886    0.7553560652
O       -3.2050976050   -2.1360297022   -0.0667222928
S       -1.0528797655   -1.4682709568   -2.7904001950
H       -0.3229375134    2.0564806663   -2.1116285570
H       -1.3201648553    0.8423488740    0.0351365327
H       -0.1268112223    0.4543491634   -4.1369735380
H       -0.4168802131   -2.0439413070    1.2878693895
H       -0.4505154213   -3.4257321826    0.1645251459
H       -1.6451432223   -3.3197764227    1.4824955056
14   

C       -0.4871668869    0.9742256875   -2.0568053412
C       -0.9474172067    0.2149028808   -0.9040266189
C       -0.5328466335    0.2392186743   -3.2143076027
C       -1.2838391138   -1.0800864315   -1.2256654796
C       -1.9347339465   -2.0913443136   -0.3261043314
C       -1.2142441248   -2.5312214385    0.9386559774
O       -3.1124617685   -2.3836764894   -0.4572348947
S       -1.1222977159   -1.3987353504   -2.9496676784
H       -0.1610491727    2.0077560177   -2.0066118810
H       -1.0425091774    0.6359826461    0.0915715064
H       -0.2461959439    0.6165074598   -4.1888679981
H       -0.6273004497   -1.7045357291    1.3462160596
H       -0.5433491576   -3.3611175739    0.7020250154
H       -1.9386271523   -2.8592305152    1.6892183143
14   

C       -0.4235096978    0.9296323520   -2.0361259421
C       -0.8243100039    0.1375057862   -0.8833355230
C       -0.6092552670    0.2582387600   -3.2177568465
C       -1.2573627321   -1.1247078004   -1.2333179558
C       -1.8960043232   -2.1382527483   -0.3434972628
C       -1.2762895617   -2.4418216320    1.0128334423
O       -3.0198234132   -2.5627668352   -0.5726440856
S       -1.2616614949   -1.3595330900   -2.9790512972
H       -0.0384031933    1.9416052741   -1.9677227999
H       -0.8127831947    0.5184431825    0.1324758513
H       -0.3881388443    0.6699835577   -4.1954280295
H       -0.8262856172   -1.5426911816    1.4395245279
H       -0.5022119195   -3.2042573546    0.8929527692
H       -2.0412620859   -2.8152092809    1.6992711560
14   

C       -0.3897742677    0.8964975733   -2.0364348466
C       -0.7374800805    0.0719919908   -0.8891600050
C       -0.6982717840    0.2884895384   -3.2263104526
C       -1.2639674749   -1.1519888433   -1.2544037807
C       -1.8611434866   -2.1918134354   -0.3796199062
C       -1.3066782397   -2.4141769388    1.0204120149
O       -2.9082092892   -2.7510237967   -0.6832084283
S       -1.4082611593   -1.3068894370   -3.0042618893
H        0.0496634236    1.8852882121   -1.9572054939
H       -0.6173654449    0.4058976644    0.1358856227
H       -0.5325555626    0.7329035754   -4.2006318115
H       -1.1010219701   -1.4592045587    1.5085542966
H       -0.3808402676   -2.9917239996    0.9556266150
H       -2.0297732441   -2.9690090877    1.6248507286
14   

C       -0.3436640677    0.8790924973   -2.0286621968
C       -0.6420081041    0.0209014014   -0.8923394750
C       -0.8080717388    0.3586975751   -3.2092289214
C       -1.3014107853   -1.1379791521   -1.2575414775
C       -1.8598170092   -2.1968289221   -0.3906537969
C       -1.3224613023   -2.3826753984    1.0205433445
O       -2.8383137072   -2.8506162734   -0.7374369261
S       -1.6140676900   -1.1910093916   -2.9923703397
H        0.1773987291    1.8272820392   -1.9478769482
H       -0.3864517233    0.2817765703    0.1292301244
H       -0.7000547952    0.8402126219   -4.1739818677
H       -1.4110870793   -1.4492590915    1.5815256249
H       -0.2717939928   -2.6810201799    0.9755881730
H       -1.8906192024   -3.1614804088    1.5371129371
14   

C       -0.3115307858    0.8590311123   -2.0500527968
C       -0.5657069667   -0.0318939899   -0.9283241354
C       -0.8765424792    0.4042443570   -3.2135044516
C       -1.3066916913   -1.1437342377   -1.2849035480
C       -1.8115499548   -2.2397516592   -0.4379145525
C       -1.3208501791   -2.3805408517    0.9951821547
O       -2.6770608332   -3.0098379120   -0.8449375615
S       -1.7314811511   -1.1188744732   -2.9972346301
H        0.2557308452    1.7805546646   -1.9718951446
H       -0.2147680937    0.1694629706    0.0783656630
H       -0.8124358283    0.9173098871   -4.1658344350
H       -1.5464775994   -1.4704267425    1.5565319476
H       -0.2412448528   -2.5516638855    0.9988177741
H       -1.8163191940   -3.2274846338    1.4782748821
14   

C       -0.3066924226    0.8648430481   -2.0602561165
C       -0.5085707788   -0.0624512893   -0.9575424371
C       -0.9773836464    0.4801447238   -3.1923659546
C       -1.3294720944   -1.1237153871   -1.2930204723
C       -1.7724029326   -2.2610624425   -0.4683687259
C       -1.3152675577   -2.3771666615    0.9779159616
O       -2.5113566758   -3.1274156332   -0.9287933249
S       -1.8767144498   -1.0158055259   -2.9672974552
H        0.3050278238    1.7583412631   -1.9927381569
H       -0.0581449562    0.0739021591    0.0200627930
H       -0.9631961198    1.0275634605   -4.1274654494
H       -1.6493068273   -1.5027443081    1.5422325114
H       -0.2247665915   -2.4400412298    1.0167036602
H       -1.7394380565   -3.2768275984    1.4327452145
