29

C     -0.65954   -1.89433    0.13143
C     -1.93757   -1.41816    0.12521
C      0.18994   -0.75504   -0.11182
C     -0.63979    0.31899   -0.25635
C      2.60720   -2.71139    0.73771
C     -0.26454    1.72970   -0.55556
C      1.20201    1.73410   -1.03678
C      2.09823    0.84653   -0.15801
C      2.96605   -4.77476    0.05490
C      3.16334   -4.71437    1.59141
C      1.69051   -0.63852   -0.20681
N      2.47527   -3.43912   -0.31118
N      2.39598   -1.36606    0.85509
O     -1.94876   -0.06231   -0.11392
O      3.05963   -3.29775    1.89734
H     -0.34944   -2.92072    0.27159
H     -2.90692   -1.87710    0.25676
H     -0.92593    2.15384   -1.31950
H     -0.37338    2.35766    0.33969
H      1.24005    1.37342   -2.07186
H      1.58685    2.75916   -1.04137
H      3.14635    0.93704   -0.45952
H      2.03443    1.19550    0.88198
H      3.90585   -4.98877   -0.46998
H      2.24459   -5.54532   -0.23577
H      2.37644   -5.23629    2.14553
H      4.14017   -5.06151    1.93441
H      2.03294   -1.08651   -1.14395
H      2.19442   -1.06547    1.80268
