30

C     -0.68246    2.55718    0.86674
C     -0.39664    3.83489    1.27820
C      0.33076    1.86831    0.16337
C      0.88741    4.35948    0.96513
C     -1.09564   -0.10986   -0.86455
C     -0.51309   -0.62934    0.42319
C      0.20606    0.46499   -0.34929
C      1.14639   -2.15323    1.60540
C      2.45112    6.15700    1.06359
C      0.06355   -2.02991    0.52437
N      1.50537    2.43003   -0.09346
N      1.81028    3.66984    0.29444
N      1.47381    0.12146   -1.06685
O      1.14859    5.59898    1.37346
H     -1.64686    2.10435    1.07628
H     -1.10512    4.44935    1.82419
H     -1.04744   -0.76317   -1.73295
H     -1.96150    0.54450   -0.84757
H     -0.97128   -0.26985    1.34203
H      2.00054   -1.48741    1.42372
H      1.52991   -3.17528    1.65903
H      0.74732   -1.89333    2.59034
H      2.43142    7.15851    1.48913
H      2.59675    6.19530   -0.01773
H      3.23776    5.55396    1.52131
H     -0.76041   -2.71527    0.74833
H      0.44692   -2.35701   -0.45194
H      1.96236   -0.68070   -0.65730
H      2.05663    1.01154   -0.92717
H      1.33981   -0.04456   -2.06840
