22

C     -0.42972    1.92454    0.39638
C     -1.23059    0.20526   -1.41596
C     -0.44013   -0.60880    0.86025
C     -0.47596    0.51166   -0.16842
C      0.81316   -0.36454    0.08965
C      1.98569    0.32228    0.76969
C      1.24359   -1.35335   -0.98009
N     -0.18531    2.94738   -0.47893
O     -0.51268    2.12240    1.60779
O     -1.75564   -0.86043   -1.68125
O     -1.27943    1.23777   -2.31727
H     -0.48674   -0.26868    1.88894
H     -1.03132   -1.48385    0.61257
H      2.58588    0.87995    0.04224
H      2.63002   -0.44140    1.21988
H      1.67109    1.00579    1.55890
H      1.82487   -0.85333   -1.76349
H      0.40182   -1.86898   -1.44318
H      1.89007   -2.11005   -0.52136
H     -0.28366    3.87890   -0.09337
H     -0.36127    2.82043   -1.46694
H     -1.79768    0.90184   -3.07399
