25

C      4.85701    1.43477   -4.81709
C      4.21629    0.42109   -4.16203
C      6.16759   -0.57668   -4.48488
C      1.89283   -0.58658   -4.30033
C      1.27337   -1.61637   -6.33289
C      8.48321   -0.84021   -2.21230
C      2.80696    0.44286   -3.64653
N      4.97930   -0.71794   -3.96485
N      7.10064   -1.62281   -4.50077
O      1.04931   -1.22736   -3.70574
O      9.29400   -2.71359   -3.92570
O      9.24014   -0.26464   -4.68415
O      2.10703   -0.67046   -5.63027
S      6.47416    0.96547   -5.25784
S      8.69343   -1.38367   -3.92254
H      4.48235    2.42101   -5.05869
H      1.58867   -1.56233   -7.37456
H      0.22018   -1.34384   -6.23222
H      1.42509   -2.62203   -5.93462
H      9.48249   -0.63051   -1.82677
H      7.87472    0.06491   -2.20711
H      8.01075   -1.64366   -1.64630
H      2.78042    0.24460   -2.57271
H      2.36492    1.43006   -3.81582
H      6.70179   -2.49737   -4.15999
