14

C     -0.78360   -2.48948   -0.58822
C      0.29058   -1.96332    0.08926
C      0.51568   -0.54521    0.52774
N     -0.71912   -3.84374   -0.80243
N      0.33711   -4.40748   -0.34314
N      2.43837   -0.08824   -0.79800
N      1.93970   -0.20953    0.53832
S      1.37503   -3.24409    0.42492
H     -1.63994   -1.93676   -0.95777
H     -0.08307    0.12107   -0.11375
H      0.15225   -0.42475    1.55618
H      2.36189    0.86909   -1.14682
H      3.42027   -0.35255   -0.79248
H      2.08163    0.64377    1.07935
