18

C      1.40326    0.54160    4.40057
C      1.05756    1.14187    3.14851
C      2.12779   -0.61322    4.24709
C      1.51961    0.43888    2.05992
C      0.01391    0.25615    0.01449
C      1.31999    0.76079    0.60653
N     -0.45799    0.65285   -1.11790
N     -0.66662   -0.74840    0.69411
O      0.44604    1.56858   -1.74424
S      2.38974   -0.98011    2.57384
H      1.13371    0.95197    5.36836
H      0.49287    2.06475    3.05194
H      2.52545   -1.26366    5.01578
H      1.35164    1.84335    0.45946
H      2.13660    0.36019   -0.00387
H     -0.65756   -0.64761    1.70373
H     -1.59474   -0.91933    0.31948
H     -0.03563    1.79461   -2.55490
