32

C     -0.35903   -0.45583    1.04402
C     -1.25812   -1.45671    1.38600
C      0.26938   -0.17003    3.35022
C     -2.44892   -3.18364    4.31221
C     -0.63393   -1.18133    3.72916
C     -1.77518   -2.64603    5.36553
C      0.42147    0.20598    2.02027
C     -0.79123   -1.57615    5.14229
C     -1.38853   -1.81276    2.73280
C     -2.91473   -4.69215   10.60986
C     -3.91285   -5.41082    8.61665
C     -1.99292   -3.09771    6.74062
C     -2.31268   -3.87618    9.46488
C      1.39029    1.28963    1.60909
N     -2.84323   -4.02913    7.00134
N     -3.82358   -5.54615   10.01954
N     -3.00308   -4.40728    8.29405
O     -0.15160   -1.05375    6.06252
O     -2.64521   -4.60281   11.79098
O     -4.63653   -6.04796    7.88420
O     -2.29164   -2.81015    3.02817
H     -0.25372   -0.17491   -0.00153
H     -1.85849   -1.96618    0.63839
H      0.84380    0.30569    4.14009
H     -3.18426   -3.97395    4.41898
H     -1.38773   -2.58733    7.49235
H     -2.50857   -2.80883    9.61571
H     -1.22935   -4.03237    9.41641
H      0.87278    2.10714    1.09502
H      1.90733    1.71037    2.47490
H      2.14823    0.90003    0.92038
H     -4.38800   -6.21850   10.52557
