25

C      4.89330   -2.26580   -0.15654
C      4.64865   -1.07423   -0.84644
C      4.33682   -2.46665    1.10751
C      3.84890   -0.08284   -0.27225
C      7.00623   -2.39837    3.99300
C      5.06850   -3.26707    4.64242
C      6.40938   -3.58657    4.50428
C      3.53371   -1.48265    1.68996
C      3.29616   -0.28904    0.99328
C      3.70980   -1.23207    4.04271
N      6.10765   -1.42852    3.82118
N      4.93551   -1.95757    4.24020
N      7.07489   -4.77242    4.87888
O      2.95377   -1.71092    2.92329
Cl     2.29729    0.95721    1.71676
H      5.51853   -3.03579   -0.59987
H      5.07761   -0.91087   -1.83108
H      4.51903   -3.37835    1.66868
H      3.65011    0.84624   -0.79727
H      8.04866   -2.21917    3.75653
H      4.22249   -3.84393    4.99081
H      3.04937   -1.37002    4.89995
H      3.97612   -0.18041    3.92172
H      7.86878   -4.97120    4.27852
H      6.45819   -5.57819    4.89107
