36

C     -2.94215   -1.33948    6.51190
C     -2.10172   -0.23403    6.68152
C     -2.56182   -2.38106    5.65747
C      2.06088   -0.48802    0.59927
C      0.67025   -0.35957    0.80002
C      2.91378   -0.81316    1.65013
C     -0.88618   -0.16473    5.99457
C     -1.34337   -2.32079    4.97746
C      0.06108   -0.55410    2.04528
C      2.33842   -1.01842    2.91149
C      0.93708   -0.89951    3.09013
C     -0.50953   -1.20882    5.14411
C      1.99222   -1.40904    5.00561
C     -1.43155   -0.38813    2.21350
C      3.65448   -1.79490    6.83069
C      2.17097   -1.74599    6.46587
N      2.95468   -1.33246    4.11743
N      0.73672   -1.14955    4.45313
N      1.55428   -3.06229    6.75090
H     -3.88903   -1.38949    7.04261
H     -2.39519    0.57813    7.34113
H     -3.21044   -3.24282    5.52526
H      2.46737   -0.32081   -0.39470
H      0.04066   -0.09102   -0.04527
H      3.98745   -0.90427    1.51443
H     -0.23134    0.69522    6.10227
H     -1.02649   -3.12517    4.32007
H     -1.92890   -1.34174    2.42013
H     -1.67821    0.28342    3.04162
H     -1.87008    0.02569    1.30155
H      4.15541   -2.58381    6.26607
H      4.14447   -0.84601    6.60224
H      3.76435   -1.99655    7.90234
H      1.69791   -0.94016    7.05232
H      0.53920   -2.98992    6.70626
H      1.77921   -3.31978    7.71138
