42

C      1.86078   -1.30112    1.80418
C      0.89340   -1.24142    0.79540
C      1.86972   -2.37746    2.70428
C     -0.07712   -2.24288    0.65068
C     -3.65461   -7.00488    3.18779
C     -4.39831   -4.80264    2.55233
C      0.91406   -3.37762    2.57195
C     -3.61570   -5.93485    2.29187
C     -0.04602   -3.31245    1.55028
C     -4.46445   -6.97026    4.32690
C     -5.28595   -5.85036    4.57828
C     -5.21803   -4.77315    3.67762
C     -1.98303   -4.68082    0.81902
C      0.66793   -4.59730    3.43089
C     -6.00397   -7.78956    7.00255
C     -0.34640   -5.41505    2.60140
C     -4.54249   -7.83976    6.55903
C     -6.82828   -6.94431    6.03097
C     -2.73556   -5.98911    1.05498
N     -0.88902   -4.45134    1.61376
O     -2.37765   -3.87229   -0.02322
O     -4.42548   -8.07930    5.14275
O     -6.12421   -5.74386    5.65759
Cl    -6.21383   -3.36409    3.97479
H      2.60358   -0.51300    1.89264
H      0.88923   -0.40293    0.10373
H      2.61277   -2.42719    3.49702
H     -0.82848   -2.19825   -0.12544
H     -3.04413   -7.89057    3.03310
H     -4.37942   -3.95131    1.87933
H      1.57629   -5.16991    3.63664
H      0.23641   -4.30386    4.39501
H     -6.43146   -8.79770    7.04260
H     -6.04678   -7.36993    8.01395
H      0.15195   -6.23664    2.07282
H     -1.14715   -5.82871    3.21387
H     -4.02787   -6.90671    6.80976
H     -4.01147   -8.66519    7.03901
H     -7.07328   -7.51263    5.12834
H     -7.76073   -6.60563    6.48805
H     -2.04746   -6.83659    1.12754
H     -3.34995   -6.13602    0.16292
