19

C      0.20322   -0.62800   -0.73956
C     -0.63231   -1.61265   -1.26628
C      1.54677   -0.59631   -2.78782
C      0.71047   -1.58565   -3.32417
C      1.26844   -0.13850   -1.50774
C     -0.37354   -2.08266   -2.55615
C     -0.06532   -3.03495   -4.80198
C      1.83692    2.11751   -1.12111
N      0.85177   -2.14796   -4.58461
O      2.13401    0.80942   -0.92082
F      1.85044    2.46337   -2.42931
F      2.75730    2.84786   -0.48135
F      0.61583    2.45473   -0.64122
S     -1.23090   -3.30136   -3.48113
S     -0.13296   -3.91264   -6.32769
H      0.04221   -0.23607    0.25904
H     -1.45924   -1.99901   -0.67860
H      2.38314   -0.20710   -3.35778
H     -1.21560   -4.65688   -6.02031
