25

C      3.27902   -5.83438    3.43259
C      3.23795   -6.55564    2.23870
C      3.69936   -4.50040    3.44895
C      3.62452   -5.93611    1.04615
C      6.47907   -2.72306    6.05257
C      6.92775   -2.12771    3.96066
C      7.54749   -2.53584    5.13157
C      4.07868   -3.87140    2.25603
C      4.04229   -4.60714    1.05678
C      4.51991   -1.74728    3.31162
N      5.29447   -2.46440    5.49358
N      5.58059   -2.09512    4.22553
N      8.92683   -2.65479    5.40043
O      4.48922   -2.56561    2.15229
Cl     4.52495   -3.84186   -0.44441
H      2.99061   -6.30711    4.36735
H      2.91331   -7.59199    2.22787
H      3.75432   -3.97134    4.39299
H      3.60325   -6.47609    0.10462
H      6.53195   -3.03350    7.08950
H      7.32032   -1.88012    2.98386
H      3.58649   -1.78939    3.87833
H      4.67531   -0.74146    2.91673
H      9.47293   -2.80495    4.55823
H      9.12302   -3.40350    6.05728
