20

C      3.36211   -1.36980    4.84558
C      3.25299   -0.06024    5.36845
C      2.40694    0.64446    4.50940
C      2.18112    0.80715    1.26421
C      1.97489    2.07667    4.47871
C      1.64235    0.76565   -0.15011
C      1.39137   -0.02170    2.28760
N      2.67706   -1.47606    3.70832
N      2.09378   -0.25362    3.52664
O      3.16255    1.45085    1.58169
I      3.63757    0.51715    7.43854
H      3.90309   -2.21782    5.24377
H      2.73291    2.68239    3.97357
H      1.03060    2.20551    3.94324
H      1.84600    2.45389    5.49477
H      0.54865    0.82526   -0.16615
H      2.07340    1.57652   -0.73896
H      1.92005   -0.19249   -0.60599
H      1.15176   -1.00275    1.87023
H      0.44012    0.49226    2.47395
