35

C      2.72573    2.26912   -2.58764
C      3.90800    1.16132   -0.78697
C      5.14814    2.47460   -2.41090
C      2.70547    1.45464   -1.43683
C      3.93693    2.76323   -3.05485
C      5.12325    1.66649   -1.26792
C      0.02418   -0.13886    0.32529
C     -0.70902    0.43819   -0.68643
C      1.46095    0.90550   -0.90001
C     -0.60943   -0.96112    1.40497
C     -2.18807    0.32374   -0.85696
C     -2.65082   -0.84061    0.04212
C      7.49671    1.80328   -0.99770
C      3.98469    3.63466   -4.28138
N      1.36028    0.14752    0.18812
N      0.21578    1.10858   -1.46394
N     -2.06277   -0.70639    1.38247
O      6.23257    1.31537   -0.55406
F      2.75960    3.84791   -4.82051
F      4.51727    4.85722   -4.01354
F      4.75757    3.08989   -5.25936
H      1.81541    2.52336   -3.11851
H      3.90103    0.53632    0.09953
H      6.07329    2.87800   -2.80420
H     -0.35950   -2.02690    1.25191
H     -0.21426   -0.67045    2.38396
H     -2.69163    1.24947   -0.55092
H     -2.46787    0.12089   -1.89832
H     -3.74014   -0.81858    0.14184
H     -2.37756   -1.79329   -0.44687
H      8.23041    1.40878   -0.29405
H      7.52941    2.89944   -0.98073
H      7.73111    1.44386   -2.00708
H      0.01073    1.64136   -2.29811
H     -2.52406   -1.35140    2.01863
