21

C      1.51891    1.03052    1.03964
C      1.79908    1.83670    2.12363
C      0.19856    0.57862    0.78737
C      0.95378    3.06372    4.13699
C     -0.12198    3.39564    4.93165
C     -1.60519    2.21030    3.64401
C      0.75491    2.23278    3.00241
C     -0.57875    1.78550    2.75378
C     -0.83036    0.94586    1.62985
C     -2.43672   -0.76266    1.91182
N     -1.39990    2.98108    4.69629
O     -2.12400    0.53277    1.38084
H      2.31616    0.73397    0.36298
H      2.81355    2.17809    2.31295
H     -0.01692   -0.04948   -0.07255
H      1.94780    3.43418    4.37436
H      0.01073    4.02828    5.80700
H     -2.63000    1.89777    3.45383
H     -3.48051   -0.95633    1.65764
H     -2.31331   -0.77999    3.00183
H     -1.79899   -1.53460    1.46417
