23

C     -1.40854   -4.01129   -2.22661
C     -1.87352   -4.37176   -0.96355
C     -0.36102   -2.72908    0.01342
C      0.09511   -2.33719   -1.25091
C     -0.46240   -2.99497   -2.36022
C     -1.33832   -3.71158    0.13703
C      2.60778   -0.32037   -2.91543
C      0.70591    0.14029   -1.69831
C      1.18990   -1.28765   -1.31300
N      2.18645   -1.51627   -2.34341
N     -0.09926   -2.64407   -3.74686
O     -0.17299   -1.45734   -4.07466
O      3.56913   -0.14607   -3.62373
O      0.20087   -3.57320   -4.49858
O      1.74088    0.67183   -2.54134
F     -1.76172   -4.04889    1.37418
H     -1.78163   -4.50700   -3.11645
H     -2.62055   -5.14696   -0.82896
H      0.05303   -2.28243    0.91291
H     -0.22691    0.11332   -2.26040
H      0.60540    0.78650   -0.82451
H      1.65693   -1.25410   -0.32013
H      2.89655   -2.22860   -2.22872
