18

C      2.77497    0.92179    0.76830
C      3.89504   -3.78446    1.14453
C      4.47682   -3.38352   -0.02975
C      2.71181   -3.03216    1.41414
C      2.40666   -2.08416    0.46932
C      1.62690    0.17152    1.29204
C      1.27784   -1.09083    0.46395
N      3.68649    1.52526    0.37320
N      0.96528   -0.70189   -0.91392
S      3.60391   -2.09940   -0.79614
Br     1.65774   -3.32381    2.98172
H      4.27485   -4.57065    1.78666
H      5.37529   -3.77500   -0.48993
H      1.84320   -0.12594    2.32198
H      0.76008    0.84230    1.32144
H      0.43294   -1.55782    0.99241
H      0.23031    0.00306   -0.92720
H      0.62217   -1.50787   -1.43302
