55

C     -1.89817    3.61274    0.09554
C     -0.82502    4.21957    0.77300
C     -1.90432    2.23463   -0.07452
C      0.21993    3.45616    1.28647
C     -0.85080    1.44610    0.42426
C      0.20413    2.06497    1.11926
C     -0.81886   -0.00779    0.17774
C      0.50387   -0.72290    0.54689
C      1.05080   -0.07108    1.86078
C      0.06127   -0.23517    3.02956
C      4.47854   -0.40669    3.76525
C      1.57663   -2.58445   -4.25563
C      2.49756   -5.41991   -0.83675
C      1.45685   -0.43001   -0.65067
C      0.20595   -2.23752    0.69980
C      2.44846   -0.57176    2.25528
C      3.03483    0.05187    3.53003
C      0.94904   -1.00574   -1.98192
C      1.39956   -3.19526    0.54628
O     -1.74141   -0.59852   -0.37326
O      3.01847   -0.42242   -3.60540
O      3.16256   -2.48862   -2.12583
O      0.14292   -5.57389    0.42702
O      0.31432   -4.18003   -1.69853
O      1.24801    1.36054    1.62876
S      2.35692   -1.58002   -2.97928
S      0.91396   -4.65842   -0.43118
H     -2.71023    4.21902   -0.29469
H     -0.81078    5.29821    0.90677
H     -2.70850    1.73161   -0.60323
H      1.04774    3.91115    1.82206
H      0.30028    0.48835    3.81090
H      0.13521   -1.23527    3.46332
H     -0.97705   -0.07504    2.73007
H      4.53874   -1.49678    3.86656
H      4.88957    0.03482    4.67893
H      5.12763   -0.11500    2.93198
H      2.38768   -2.94532   -4.89112
H      1.05378   -3.40812   -3.76769
H      0.89876   -1.95197   -4.83163
H      2.25868   -6.31761   -1.41039
H      3.07488   -4.70984   -1.43052
H      3.00529   -5.69102    0.09071
H      2.43854   -0.84867   -0.42995
H      1.60860    0.64522   -0.75039
H     -0.55122   -2.47630   -0.04882
H     -0.28441   -2.42155    1.65598
H      2.40491   -1.65743    2.38136
H      3.13967   -0.37459    1.43106
H      3.00042    1.14257    3.44747
H      2.42583   -0.21993    4.39895
H      0.31648   -1.88441   -1.85855
H      0.41859   -0.26609   -2.58482
H      2.23960   -2.77235   -0.00334
H      1.75674   -3.59240    1.49847
