47

C     -2.39969   -0.59019    6.24053
C      2.66362   -0.42692    0.26517
C     -2.12446    0.39850    5.29270
C      1.51289    0.15432    0.79471
C     -3.20103   -1.68748    5.91088
C      1.27645   -1.76773    2.24377
C      4.29595   -3.52521   -0.56961
C     -3.45425   -0.79341    3.66085
C      5.53116   -1.52524   -0.09177
C      6.59094   -3.19330   -1.25842
C      3.14796   -1.67213    0.69053
C      2.44008   -2.33710    1.71643
C      4.33478   -2.25272    0.01564
C     -2.65100    0.30723    3.99516
C      0.79912   -0.52980    1.79209
C      5.44257   -3.98064   -1.19908
C     -3.72084   -1.77381    4.61753
C      2.90647   -3.60351    2.30590
C     -1.06054    1.12320    2.12386
C     -3.43601    2.04569    2.21559
C     -2.63290    2.79817    3.23249
C     -2.30806    1.33395    2.95680
N      6.63018   -1.97385   -0.70967
N      4.21863   -3.93716    2.50976
N      2.07940   -4.55127    2.76517
N      4.22572   -5.10748    3.09918
N      2.94516   -5.44463    3.23971
N     -0.37940   -0.04244    2.38907
O     -0.70741    1.94473    1.27932
F      5.44712   -5.20738   -1.77843
Cl    -4.72884   -3.14456    4.18446
H     -1.99077   -0.51128    7.24414
H      3.18965    0.09095   -0.53196
H     -1.49911    1.24792    5.55401
H      1.15870    1.11190    0.43950
H     -3.42195   -2.45928    6.64121
H      0.75010   -2.29610    3.03474
H      3.40269   -4.14211   -0.54365
H     -3.86620   -0.88166    2.66001
H      5.60394   -0.53893    0.36261
H      7.48477   -3.56005   -1.75911
H     -4.44723    1.74948    2.47664
H     -3.25595    2.26857    1.16954
H     -1.91495    3.52427    2.86702
H     -3.09428    3.01663    4.19045
H      2.65773   -6.32157    3.66093
H     -0.77938   -0.63711    3.10468
