18

C      1.39138   -0.81306   -1.37046
C      0.88303    0.20393    2.11450
C      0.82910   -0.78840    4.15236
C     -0.73718    0.32563    0.19720
C      0.72857    0.39700    0.63788
N      1.23520   -0.97492   -2.51681
N      1.24901    1.14420    2.93991
N      0.61074   -0.97531    2.77621
N      1.20321    0.54491    4.18225
N      1.52486   -0.66870   -0.03566
O      0.71674   -1.59283    5.06385
H     -1.16742   -0.65539    0.41827
H     -1.30997    1.08937    0.72830
H     -0.82639    0.50742   -0.87658
H      1.13206    1.38946    0.40758
H      0.37027   -1.86688    2.36377
H      1.46468    1.06137    5.01025
H      2.49671   -0.69157    0.26440
