20

C     -1.08686    0.14056    1.50834
C      1.27334    1.95899   -1.01813
C      1.67951   -2.36937   -0.99120
C     -2.39314    0.62974    2.23954
N     -1.22165    0.05457    0.14026
O     -0.07186   -0.08091    2.12630
O     -0.52495   -0.19020   -2.34681
O      1.26906    0.57237   -0.60334
O      0.47086   -1.76837   -0.46433
P      0.00629   -0.33767   -0.97567
Cl    -3.81296   -0.35414    1.70490
Cl    -2.20208    0.50052    3.99411
Cl    -2.65377    2.35876    1.76873
H      2.25834    2.34655   -0.75932
H      0.50388    2.51343   -0.47270
H      1.10233    2.03411   -2.09423
H      1.74472   -3.35433   -0.53028
H      2.54482   -1.76434   -0.71260
H      1.61078   -2.46824   -2.07757
H     -2.13338    0.21983   -0.27599
