25

C      1.23923    0.58976    2.22494
C      1.03734   -0.60184    1.62257
C      3.36436   -0.70715    1.87370
C     -0.21413   -1.62633   -0.30301
C      0.90855   -3.10571   -1.80124
C      6.48347   -2.19618    0.28021
C     -0.26530   -1.19276    1.15919
N      4.60976   -1.09258    1.79066
N      2.21899   -1.32442    1.45663
O     -0.84388   -1.12300   -1.20756
O      5.25285   -3.55174    2.20492
O      3.94224   -2.97330    0.12057
O      0.65454   -2.65269   -0.44900
S      2.94049    0.84794    2.60032
S      4.95594   -2.58855    1.13947
H      0.49461    1.32936    2.48332
H      1.72500   -3.81984   -1.71038
H      1.19986   -2.26120   -2.42815
H      0.01088   -3.57535   -2.20857
H      6.84074   -3.12856   -0.16005
H      6.27074   -1.45451   -0.48959
H      7.19392   -1.81443    1.01330
H     -1.06167   -0.45808    1.26975
H     -0.50635   -2.07244    1.76776
H      2.28321   -2.16092    0.87059
