24

C      4.09896    1.27632   -5.68899
C      3.63332    0.33902   -4.81193
C      5.81146   -0.11510   -4.50548
C      1.33681    1.30434   -4.61995
C      0.60907    3.23845   -3.47989
C      8.29535   -1.59364   -6.15973
C      2.17227    0.05285   -4.51566
N      4.56783   -0.42871   -4.16037
N      6.88348   -0.74873   -3.99216
O      0.78429    1.71214   -5.62809
O      9.33929   -1.20377   -3.76436
O      8.63610    0.80811   -5.13067
O      1.27761    1.96888   -3.43477
S      5.84703    1.26366   -5.70898
S      8.34515   -0.56961   -4.65207
H      3.52500    1.95305   -6.30928
H      0.66946    3.63768   -2.46642
H     -0.43468    3.11789   -3.78422
H      1.10924    3.90867   -4.18429
H      9.26788   -1.51112   -6.65052
H      8.09539   -2.62397   -5.86144
H      7.50512   -1.21515   -6.81189
H      1.77063   -0.68304   -5.21972
H      2.10994   -0.35394   -3.50447
