25

C      0.71317    0.05732    3.37654
C      0.75054   -0.17544    2.04658
C      2.95855   -0.75089    2.58214
C      0.05374    0.84159   -0.14325
C      1.56514    0.92380   -1.98321
C      5.91583   -2.77565    1.30964
C     -0.36256   -0.01466    1.04901
N      4.20842   -1.12224    2.48975
N      1.99689   -0.63016    1.62024
O     -0.37140    1.94808   -0.39423
O      3.85879   -1.72930   -0.02123
O      5.75725   -0.20691    0.65760
O      0.98300    0.18963   -0.87794
S      2.26113   -0.29034    4.14009
S      4.88576   -1.34120    0.98271
H     -0.12525    0.41573    3.95680
H      2.34992    0.27662   -2.37106
H      1.98191    1.86692   -1.62540
H      0.80333    1.12070   -2.74020
H      6.46639   -2.97944    0.38975
H      6.59637   -2.52275    2.12259
H      5.27288   -3.61449    1.57599
H     -1.21825    0.45882    1.52843
H     -0.66584   -0.99943    0.67404
H      2.21585   -0.87775    0.65218
