27

C     -0.04147   -1.61326   -3.20854
C     -2.98055   -2.44405   -4.37320
C     -3.40525   -3.21408   -3.14025
C     -0.71893    0.48388   -0.88298
C      0.44968    0.21487    1.17692
C     -1.94559   -3.13544   -3.52243
C     -0.92034    0.68440    0.62164
C      0.84275   -0.93219   -2.16015
N      0.14398   -0.70675   -0.89863
N     -1.08407   -2.33400   -2.69936
O      0.21165   -1.51507   -4.40506
O      1.18216   -0.31955    0.06520
O     -2.00885   -0.07776    1.13848
H     -3.18730   -2.86634   -5.35119
H     -3.00358   -1.36058   -4.32721
H     -3.72759   -2.63930   -2.27632
H     -3.90977   -4.16724   -3.26549
H     -1.65913    0.28369   -1.40020
H     -0.21268    1.34766   -1.34081
H      1.05217    1.02646    1.59215
H      0.29056   -0.55261    1.94465
H     -1.48324   -4.02746   -3.93985
H     -1.14639    1.72050    0.87595
H      1.68709   -1.59726   -1.95528
H      1.24009   -0.00754   -2.59827
H     -1.11256   -2.43357   -1.69035
H     -1.83551   -1.00881    0.91890
