27

C     -0.16285   -2.41434   -2.30587
C     -1.47191   -4.13704   -4.79260
C     -1.48329   -2.97450   -5.76288
C     -0.29453   -0.79104    0.31083
C     -1.65253    0.17844   -1.41540
C     -1.59205   -2.72542   -4.27743
C     -1.77040   -0.65846   -0.13552
C      0.96126   -1.56348   -1.70637
N      0.54551   -0.45055   -0.84156
N     -0.46125   -2.13631   -3.61334
O     -0.75871   -3.26725   -1.64599
O     -0.24968    0.48484   -1.60697
O     -2.57737    0.05150    0.81084
H     -2.35079   -4.76990   -4.72435
H     -0.52737   -4.64008   -4.61599
H     -0.54556   -2.71418   -6.24561
H     -2.36859   -2.80613   -6.36830
H     -0.11635   -0.05008    1.09683
H     -0.04402   -1.78842    0.67529
H     -2.04139   -0.35646   -2.28811
H     -2.17922    1.12819   -1.29930
H     -2.56203   -2.42764   -3.88260
H     -2.20772   -1.63727   -0.34782
H      1.58160   -2.22105   -1.09190
H      1.59450   -1.13268   -2.48731
H     -0.06832   -1.28908   -4.00622
H     -2.77308   -0.54707    1.54823
