20

C     -1.51351   -1.59528   -0.35145
C     -2.38404   -0.73936   -1.24137
C     -0.11351    2.66856   -1.03029
C      2.59257    0.16118    0.64343
N     -0.54373   -0.92773    0.42436
O     -1.59968   -2.80979   -0.27690
O     -1.51256    1.44756    1.36552
O     -0.02254    1.24473   -0.77380
P     -0.38361    0.73485    0.72110
S      1.38660    0.85627    1.84900
H     -1.77046   -0.20822   -1.97365
H     -2.91770    0.00993   -0.64853
H     -3.09722   -1.38691   -1.75044
H      0.06943    2.79141   -2.09782
H      0.64855    3.20420   -0.45609
H     -1.10576    3.03759   -0.76403
H      3.57269    0.24391    1.11736
H      2.58263    0.73581   -0.28298
H      2.38142   -0.88781    0.43028
H     -0.09724   -1.55087    1.09353
