25

C      4.43366    1.41574   -4.96224
C      3.62618    0.71337   -4.10924
C      5.24951   -0.77477   -4.32515
C      1.15571    0.33643   -4.28216
C     -1.16190   -0.12489   -4.20174
C      4.42136   -3.32839   -5.99277
C      2.27469    1.13290   -3.62002
N      4.10165   -0.53362   -3.75189
N      5.97367   -1.96064   -4.12049
O      1.27279   -0.38065   -5.25506
O      6.81783   -2.31042   -6.50517
O      6.65108   -4.27640   -4.87052
O     -0.01645    0.55581   -3.64390
S      5.86409    0.50805   -5.34174
S      6.12262   -3.04558   -5.45295
H      4.24945    2.38037   -5.41748
H     -2.00476    0.16464   -3.57476
H     -1.01145   -1.20636   -4.17140
H     -1.32374    0.18776   -5.23585
H      4.48135   -3.95469   -6.88446
H      3.88521   -3.84090   -5.19364
H      3.95603   -2.36988   -6.22520
H      2.19350    1.00353   -2.53667
H      2.09482    2.19245   -3.82693
H      5.63601   -2.46460   -3.29994
