30

C     -0.72168    2.62974    0.64968
C     -0.50977    3.98667    0.78931
C      0.13969    1.92861   -0.20766
C      0.55654    4.57066    0.05941
C     -1.21970   -0.31867   -0.51930
C     -0.24035   -0.56292    0.60023
C      0.07995    0.45505   -0.48040
C     -0.29083   -2.91015    1.53007
C      0.12024    6.75945    0.92277
C      0.50070   -1.88425    0.70646
N      1.12012    2.55517   -0.86152
N      1.34911    3.85166   -0.75003
N      1.14622    0.12806   -1.47902
O      0.88238    5.86481    0.09317
H     -1.52638    2.13696    1.18742
H     -1.14382    4.57984    1.43729
H     -1.31811   -1.09960   -1.27031
H     -2.13004    0.24478   -0.34035
H     -0.47782   -0.10754    1.55926
H     -0.45383   -2.55146    2.55086
H      0.25237   -3.85666    1.58986
H     -1.26811   -3.10553    1.07832
H      0.57602    7.73764    0.78118
H      0.19170    6.47036    1.97628
H     -0.92607    6.79235    0.60233
H      0.67968   -2.30168   -0.29412
H      1.48129   -1.71770    1.17033
H      1.82975   -0.55035   -1.12875
H      1.61854    1.08130   -1.62407
H      0.77493   -0.20650   -2.37288
