27

C      0.12065   -1.56275   -3.13077
C     -0.79227   -1.48281   -6.28891
C     -0.59221    0.00976   -6.44833
C     -0.31567   -1.82416   -0.07457
C     -1.46393    0.05171   -1.04220
C     -0.95555   -0.56899   -5.10141
C     -1.73219   -1.34371   -0.44748
C      1.16133   -1.33008   -2.02977
N      0.64601   -0.92166   -0.71683
N      0.05751   -0.57870   -4.08189
O     -0.60772   -2.55598   -3.14346
O     -0.05841    0.33445   -0.84292
O     -2.51454   -1.31900    0.75237
H     -1.68916   -1.93758   -6.69672
H      0.08891   -2.11515   -6.29733
H      0.42480    0.36838   -6.57948
H     -1.34929    0.58723   -6.96988
H     -0.21407   -1.72897    1.01035
H     -0.12724   -2.85509   -0.37367
H     -1.70987    0.09306   -2.10992
H     -2.01917    0.82496   -0.50546
H     -1.97025   -0.41101   -4.73952
H     -2.19107   -2.00086   -1.19091
H      1.69461   -2.27193   -1.87553
H      1.89325   -0.57406   -2.32873
H      0.53953    0.28982   -3.88352
H     -3.44969   -1.26112    0.50448
