28

C      2.42896   -0.60462    0.23203
C      4.75400   -3.43887   -0.25861
C      4.91425   -2.19290   -1.09825
C     -0.22244    0.77375   -0.12674
C     -1.39550   -1.20961    0.37405
C      3.54593   -2.60749   -0.61635
C     -0.84076   -0.44926   -0.82066
C      1.74288    0.05059    1.44000
N      2.91894   -1.84073    0.43769
N      0.25657    0.21117    1.21648
O      2.50958    0.03405   -0.82032
O     -0.36231   -1.07300    1.40025
O      0.08803   -1.29663   -1.45702
H      4.84622   -4.40983   -0.73367
H      5.10766   -3.39882    0.76771
H      5.36190   -1.32254   -0.63062
H      5.11547   -2.29622   -2.15902
H      0.62859    1.21038   -0.64517
H     -0.98107    1.52516    0.09657
H     -2.33813   -0.79689    0.74536
H     -1.47770   -2.27997    0.19016
H      2.84151   -2.99994   -1.34508
H     -1.63887   -0.12040   -1.49788
H      2.14391    1.05947    1.56219
H      1.83578   -0.50023    2.37706
H      2.69389   -2.31951    1.30257
H     -0.10332    0.80016    1.97700
H      0.75166   -0.78030   -1.94785
