16   

C        5.0202462487    1.6401485958    0.1071866223
C        5.3180331864    0.5088513593    0.8043102524
C        3.3530568224    0.2730439071   -0.2439690917
C        2.0817715281   -0.3296392602   -0.7324156873
C        0.4484391974   -2.1483143942   -0.3783297228
N        3.8079575174    1.4804326344   -0.5366910435
N        4.2730202139   -0.3802486086    0.5944265146
N        1.6820491508   -1.4600941398   -0.0278889350
O        1.4027893574    0.0992534030   -1.6584532391
H        5.6395089041    2.5287058746    0.0586373033
H        6.2145009998    0.3527261399    1.3934379365
H        0.2815662270   -2.9939350146    0.2957791450
H        0.5047661413   -2.5284555752   -1.4038506942
H       -0.4041598995   -1.4652993884   -0.2981531624
H        4.2229175425   -1.3464901274    0.9007332811
H        2.1569634715   -1.6884196031    0.8341370586
16   

C        4.9861832921    1.6555204533    0.1830452063
C        5.3487544490    0.4765575923    0.7620652792
C        3.3945584653    0.2445907742   -0.3003654320
C        2.1386443816   -0.3764598304   -0.8111455777
C        0.4182560219   -2.0829096416   -0.3433847349
N        3.7759467857    1.4996846652   -0.4669464992
N        4.3494455650   -0.4407329998    0.4674635110
N        1.6634747682   -1.4061600230   -0.0130035088
O        1.5204431454   -0.0155232155   -1.8059823605
H        5.5583250039    2.5755785083    0.2222587543
H        6.2575104851    0.3089203665    1.3288072438
H        0.1944248049   -2.8501929460    0.4039840690
H        0.4978468579   -2.5663771103   -1.3227965018
H       -0.4097032151   -1.3661353129   -0.3662823628
H        4.3446105381   -1.4356588240    0.6721232942
H        2.0850613119   -1.5385407408    0.8971038341
16   

C        4.9502104203    1.6578527984    0.2657493545
C        5.3902146912    0.4535366939    0.7289122851
C        3.4457440049    0.2042939721   -0.3405223938
C        2.2076256887   -0.4436321883   -0.8725694117
C        0.3995451881   -2.0286034245   -0.3282820638
N        3.7409106592    1.4916661625   -0.3845594771
N        4.4434811793   -0.4912277414    0.3570340372
N        1.6507981480   -1.3610274534   -0.0028496023
O        1.6643571012   -0.1680964569   -1.9359887672
H        5.4670368260    2.6030804261    0.3875722869
H        6.3143412862    0.2887310718    1.2711201637
H        0.1247639455   -2.7264845186    0.4685141252
H        0.5017319527   -2.5925742711   -1.2614626995
H       -0.4046869554   -1.2938190066   -0.4422158982
H        4.4875767135   -1.4991719695    0.4794322055
H        2.0270142105   -1.4126377119    0.9358804217
16   

C        4.8545233398    1.6507171729    0.3420339152
C        5.3947499071    0.4463469362    0.6847068753
C        3.4357236997    0.1489168161   -0.3386515308
C        2.2185095525   -0.5440366870   -0.8785176946
C        0.3433353743   -2.0213158385   -0.2751203834
N        3.6334666034    1.4534098987   -0.2780170278
N        4.5012496872   -0.5298996598    0.2651264609
N        1.5827692643   -1.3330718633    0.0515649966
O        1.7759403378   -0.4091301733   -2.0132797794
H        5.3097465744    2.6170606656    0.5274279723
H        6.3487730099    0.3031606850    1.1791746720
H        0.0234588985   -2.6433795770    0.5664143329
H        0.4858347304   -2.6682313068   -1.1472088140
H       -0.4469986182   -1.2956105393   -0.4947884332
H        4.6096832426   -1.5397566334    0.3090253700
H        1.9042736658   -1.2817858446    1.0111209722
16   

C        4.7886409309    1.6498541070    0.4711288533
C        5.4391506618    0.4656954467    0.6593168213
C        3.4417168515    0.1098057568   -0.2591196885
C        2.2624759378   -0.6234205979   -0.8437305193
C        0.3214950700   -2.0322430981   -0.2965682837
N        3.5462324206    1.4151692403   -0.0926296821
N        4.5935711420   -0.5355410741    0.2010194057
N        1.5021653305   -1.2756062150    0.0902469727
O        2.0410870551   -0.7342208433   -2.0440213615
H        5.1838424173    2.6278511511    0.7216515834
H        6.4335326044    0.3528745147    1.0759310722
H       -0.0944287003   -2.5524452622    0.5717004361
H        0.5779355269   -2.7793133768   -1.0550801724
H       -0.4425812902   -1.3601013591   -0.7013871057
H        4.7767053260   -1.5333247991    0.1315710595
H        1.6964931613   -1.0839299978    1.0666486019
16   

C        4.7727191297    1.6642567161    0.5605600808
C        5.5259051260    0.5273171274    0.5928081545
C        3.4829265686    0.0754595236   -0.1677803410
C        2.3526936735   -0.6885071675   -0.8087449715
C        0.3262479520   -2.0130258584   -0.3508767724
N        3.5081998981    1.3739116539    0.0754409548
N        4.7216704670   -0.5012607214    0.1212182327
N        1.4330520626   -1.1717456771    0.0785593208
O        2.3981815851   -1.1126529056   -1.9582829486
H        5.1139082365    2.6491115239    0.8589946810
H        6.5595226587    0.4640446538    0.9131061193
H       -0.1486411726   -2.4821369278    0.5161890429
H        0.6799662767   -2.8074318262   -1.0164352662
H       -0.4209687454   -1.4115464105   -0.8791581495
H        4.9742959787   -1.4671008110   -0.0736194052
H        1.4716686755   -0.8080893817    1.0246586456
16   

C        4.7297644561    1.6354204841    0.6855079523
C        5.5691714781    0.5677674629    0.5578931776
C        3.5089765870    0.0044672064   -0.0735871949
C        2.4153475424   -0.7846518920   -0.7339572275
C        0.2976911310   -1.9829409552   -0.3348612870
N        3.4558559847    1.2816662283    0.2708790863
N        4.8104395541   -0.4824872785    0.0597620340
N        1.3902791884   -1.1263463176    0.1003718062
O        2.5765322488   -1.3747494095   -1.7973178260
H        5.0176166104    2.6175754146    1.0431614822
H        6.6279373276    0.5651111055    0.7900552446
H       -0.2638892110   -2.3457935810    0.5313435002
H        0.6799246773   -2.8520853194   -0.8803225182
H       -0.3819525685   -1.4236666926   -0.9863474987
H        5.1171054336   -1.4017321015   -0.2507502499
H        1.3513166171   -0.6429514770    0.9918558187
16   

C        4.6986902620    1.5780834156    0.7684663271
C        5.5951063836    0.5841196986    0.5051334573
C        3.5371066733   -0.0768055277   -0.0343336599
C        2.4655950417   -0.8932826960   -0.6819451928
C        0.2638465666   -1.9435699708   -0.3159682961
N        3.4245249438    1.1675542884    0.4095093683
N        4.8737389189   -0.4778878557   -0.0225331501
N        1.3677143191   -1.0938773080    0.1031564785
O        2.6726830675   -1.5929155259   -1.6686542326
H        4.9462092110    2.5490905262    1.1823309796
H        6.6652046942    0.6378437721    0.6691063137
H       -0.3542229237   -2.2100082213    0.5467733091
H        0.6361373007   -2.8699812732   -0.7656373693
H       -0.3586703594   -1.4175659514   -1.0473042721
H        5.2132422648   -1.3526765129   -0.4170927709
H        1.3001816183   -0.5138850948    0.9340156606
16   

C        4.6763926825    1.5234301015    0.8343468186
C        5.6090423607    0.6081851492    0.4423651023
C        3.5610353481   -0.1427786646   -0.0108016826
C        2.5035071606   -0.9922977241   -0.6243145789
C        0.2343908494   -1.9000221495   -0.2871942471
N        3.4060102789    1.0583554817    0.5317606062
N        4.9161670115   -0.4593496170   -0.1115612497
N        1.3555431158   -1.0620168944    0.1079048631
O        2.7267761523   -1.7706193142   -1.5467701711
H        4.8950976229    2.4773275089    1.3008813530
H        6.6829316321    0.7168971125    0.5415765167
H       -0.4231591478   -2.0766084083    0.5694085292
H        0.5852503511   -2.8714595106   -0.6509431327
H       -0.3406729948   -1.4096667307   -1.0795426219
H        5.2754530379   -1.2915806803   -0.5752678600
H        1.2843513695   -0.4070018997    0.8816257277
16   

C        4.6660899530    1.4856467023    0.8907242543
C        5.6129696832    0.6490045459    0.3761257692
C        3.5769968610   -0.1703082301   -0.0072538154
C        2.5293508529   -1.0505446598   -0.5840817702
C        0.2050858343   -1.8263308852   -0.2982690600
N        3.4014719723    0.9772487981    0.6364891848
N        4.9360386037   -0.4116257057   -0.2097409282
N        1.3415912743   -1.0011233169    0.0788877280
O        2.7597417997   -1.8855357202   -1.4538863756
H        4.8702447086    2.4138773803    1.4123737706
H        6.6849439429    0.8038352737    0.4187896190
H       -0.4829522490   -1.9268607982    0.5466298287
H        0.5334439814   -2.8300357672   -0.5880743688
H       -0.3289889427   -1.3702882250   -1.1382701028
H        5.3025835908   -1.2027275808   -0.7359206588
H        1.2753967674   -0.2944783970    0.8071682415
16   

C        4.6710267564    1.4244602200    0.8135006995
C        5.6051635873    0.6301333479    0.2153081448
C        3.5719331028   -0.2383075699   -0.0590719385
C        2.5224963279   -1.1632207415   -0.5525045880
C        0.1494504108   -1.7944152014   -0.2922645377
N        3.4075611273    0.8824392189    0.6328224804
N        4.9213790160   -0.4360181106   -0.3521601667
N        1.3064237372   -0.9701807502    0.0213162391
O        2.7491980810   -2.0807354906   -1.3359304414
H        4.8830184798    2.3444219345    1.3465501538
H        6.6730571804    0.8147329337    0.1937670874
H       -0.4982275653   -1.8808917150    0.5854823994
H        0.4554365079   -2.8049537654   -0.5830392873
H       -0.4199395546   -1.3478333209   -1.1137258132
H        5.2765846811   -1.2160496103   -0.9022957944
H        1.2564590985   -0.1981432839    0.6820892650
16   

C        4.6952778745    1.4614792948    0.8046233212
C        5.6166133014    0.7359332815    0.1074237656
C        3.5961947305   -0.1768895304   -0.1130692496
C        2.5577950162   -1.1330819576   -0.5670933840
C        0.1465699351   -1.6661181981   -0.4126902371
N        3.4404956645    0.8883192009    0.6633734561
N        4.9330740852   -0.3158701534   -0.4864279191
N        1.3119505624   -0.8476541869   -0.1107331554
O        2.8009806268   -2.0931339376   -1.2924757288
H        4.9106426094    2.3528741034    1.3829359533
H        6.6762384326    0.9544382739    0.0411573884
H       -0.4049492798   -1.8854650316    0.5067406087
H        0.4359027921   -2.6212958581   -0.8634241958
H       -0.5121270398   -1.1403786192   -1.1110060965
H        5.2829853937   -1.0639533453   -1.0824889609
H        1.2562558450   -0.0387153884    0.5042486871
16   

C        4.6689118067    1.4313226413    0.8024197175
C        5.5721112773    0.7449460339    0.0444498463
C        3.5596424431   -0.1961683269   -0.1222476130
C        2.5285891396   -1.1854084028   -0.5204617882
C        0.0965374654   -1.6102858313   -0.5654117501
N        3.4205677424    0.8363842567    0.7001405841
N        4.8828195367   -0.3021371771   -0.5511629847
N        1.2586465261   -0.8040161030   -0.2252516832
O        2.7861539028   -2.2109240611   -1.1441298635
H        4.8933417853    2.3079804004    1.3995077428
H        6.6244556026    0.9838956103   -0.0575904168
H       -0.1533265150   -2.2799828550    0.2637525362
H        0.2855118891   -2.2119590579   -1.4607574065
H       -0.7611565833   -0.9630905555   -0.7725444421
H        5.2261211578   -1.0407293078   -1.1626328053
H        1.1752385082    0.0849378449    0.2625623331
16   

C        4.6549750220    1.5239293723    0.8331987266
C        5.5412417708    0.8990534305    0.0052951861
C        3.5629827459   -0.1221022534   -0.0793840855
C        2.5629940109   -1.1690732804   -0.4095087915
C        0.1453278946   -1.6182880532   -0.6065898128
N        3.4304608704    0.8752787027    0.7865086100
N        4.8641945801   -0.1613090785   -0.5809218830
N        1.2717681472   -0.7578005937   -0.2817001897
O        2.8608193238   -2.2400068642   -0.9303268268
H        4.8763514535    2.3920804970    1.4437031632
H        6.5756312466    1.1852810684   -0.1464734761
H       -0.0648933495   -2.2945853630    0.2284200597
H        0.3566303364   -2.2128621182   -1.5016108437
H       -0.7444855827   -1.0132384537   -0.8053453036
H        5.2101286491   -0.8804845115   -1.2135187721
H        1.1440872116    0.1639643593    0.1283830286
16   

C        4.6859616492    1.4893985208    0.8837883545
C        5.5132293077    0.9424452972   -0.0530300764
C        3.5535548279   -0.1174133853   -0.0491424296
C        2.5590459430   -1.1873761687   -0.3365048661
C        0.1574084894   -1.6317629270   -0.6845887294
N        3.4760627884    0.8128176236    0.8941469796
N        4.8115625660   -0.0944905300   -0.6521702768
N        1.2668597236   -0.7527567114   -0.3502165672
O        2.8736453375   -2.2851853789   -0.7863937567
H        4.9399126023    2.3201978924    1.5323929344
H        6.5267366150    1.2622595443   -0.2661524570
H       -0.0980765411   -2.2587910361    0.1759494339
H        0.4148647356   -2.2767693447   -1.5312227714
H       -0.7197781811   -1.0403294530   -0.9640041808
H        5.1272389962   -0.7743863015   -1.3412340968
H        1.1136392709    0.1891973586   -0.0009273948
16   

C        4.7337559142    1.4549336332    0.9497638774
C        5.4795440425    0.9874622870   -0.0924167726
C        3.5484611130   -0.1172586434    0.0247179265
C        2.5552748425   -1.2076892152   -0.2175901739
C        0.1852257036   -1.6695557266   -0.7218577274
N        3.5443931865    0.7478720267    1.0295240666
N        4.7449846784   -0.0285556296   -0.6880619985
N        1.2740826509   -0.7672921664   -0.3805686888
O        2.8848989841   -2.3359057865   -0.5703529682
H        5.0316996082    2.2497680078    1.6242060632
H        6.4630724598    1.3438507242   -0.3762175818
H       -0.1248751112   -2.2358484305    0.1625685910
H        0.4931476785   -2.3710542211   -1.5042415723
H       -0.6717725533   -1.1005599914   -1.0948458797
H        5.0165320620   -0.6658821909   -1.4338983720
H        1.0964241652    0.1978646576   -0.1194396226
16   

C        4.7946695535    1.4075672546    1.0216942387
C        5.4382859547    1.0242332342   -0.1182988481
C        3.5459282549   -0.1260865222    0.1188487462
C        2.5397718985   -1.2212609754   -0.0886865250
C        0.2151537040   -1.6959522907   -0.7598377494
N        3.6298413600    0.6723063237    1.1715854794
N        4.6625930033    0.0330033296   -0.7036257702
N        1.2903313059   -0.7783933421   -0.4148611470
O        2.8647633839   -2.3843350121   -0.3044902525
H        5.1474595824    2.1629202280    1.7147918623
H        6.3835720534    1.4183701354   -0.4732377526
H       -0.1639249746   -2.1871898336    0.1424498598
H        0.5672857461   -2.4600438858   -1.4607009410
H       -0.6060324948   -1.1513722073   -1.2356855356
H        4.8734016743   -0.5513235953   -1.5096001455
H        1.1072213876    0.2091016601   -0.2690658188
16   

C        4.8728829104    1.3131050990    1.0789638315
C        5.3811222338    1.0324481314   -0.1554941156
C        3.5580667180   -0.1884563501    0.2217104678
C        2.5165119499   -1.2627034616    0.0398764768
C        0.2412238921   -1.7171030558   -0.7890016759
N        3.7463317865    0.5402931567    1.3076440882
N        4.5591662010    0.0656635519   -0.7184142867
N        1.3287912553   -0.8083404739   -0.4595645859
O        2.7828786524   -2.4595373776    0.0332852056
H        5.2921059512    2.0252701369    1.7807367584
H        6.2690918799    1.4784273728   -0.5885897978
H       -0.2266473649   -2.0922170276    0.1272830791
H        0.6103935524   -2.5658926161   -1.3741815335
H       -0.5163420372   -1.1977818943   -1.3838020929
H        4.6805704858   -0.4415357302   -1.5917059449
H        1.1843736315    0.1956434721   -0.4606260987
16   

C        4.9088881595    1.2293897112    1.0922180364
C        5.2708973439    1.0536256331   -0.2111877663
C        3.5488199585   -0.2649533940    0.2944957795
C        2.4515522293   -1.2848950335    0.1341041782
C        0.2195582898   -1.6764546115   -0.8232198941
N        3.8334757394    0.4108532980    1.3921617092
N        4.4110048961    0.1022623321   -0.7431735329
N        1.3734538840   -0.8261212921   -0.5750923971
O        2.5324610822   -2.4526323632    0.4971900563
H        5.3906441571    1.9049561290    1.7900326438
H        6.0879559262    1.5607022525   -0.7115676368
H       -0.2840369283   -1.9151637519    0.1195815969
H        0.5287373190   -2.6080886057   -1.3086919206
H       -0.4911550799   -1.1657415311   -1.4801459971
H        4.4283185410   -0.3159895258   -1.6698337178
H        1.3389384864    0.1657163146   -0.7822875376
16   

C        5.0027920373    1.1251578533    1.1192743281
C        5.2175091896    1.0620439153   -0.2259913820
C        3.5691913204   -0.3222545370    0.3569981397
C        2.4314409051   -1.2928350116    0.2278915038
C        0.2354994818   -1.6485332028   -0.8276779048
N        3.9686570098    0.2737745894    1.4658413354
N        4.3069739910    0.1468748155   -0.7367222398
N        1.4489899161   -0.8691132509   -0.6365441346
O        2.3280690925   -2.3443180948    0.8487422148
H        5.5557870243    1.7478717103    1.8134228404
H        5.9710689681    1.6208262183   -0.7691956309
H       -0.3311147063   -1.7038469231    0.1079620463
H        0.4830630942   -2.6638163068   -1.1551710178
H       -0.3952130865   -1.1843671796   -1.5920190726
H        4.2226097832   -0.1866360462   -1.6933567757
H        1.5152251966    0.0751353286   -0.9981364562
16   

C        5.1143235830    1.0741216469    1.1294265327
C        5.2033029775    1.1018876077   -0.2306442564
C        3.5879986625   -0.3018244100    0.4075761471
C        2.4358386728   -1.2509323584    0.3205404692
C        0.3008154476   -1.6882370365   -0.8319862084
N        4.1040013460    0.2101701810    1.5112074467
N        4.2351377599    0.2330464682   -0.7153530309
N        1.5228885528   -0.9171695976   -0.6611770699
O        2.2413516796   -2.2006142147    1.0703357300
H        5.7385513487    1.6418900727    1.8101503176
H        5.9128810010    1.6896596179   -0.8017690679
H       -0.3050295486   -1.6469248155    0.0795703316
H        0.5395526453   -2.7337110732   -1.0540469498
H       -0.2881650167   -1.2848884428   -1.6613452545
H        4.0700279101   -0.0402784769   -1.6801908207
H        1.6295727207   -0.0220968051   -1.1225696148
16   

C        5.1720325437    1.0055720920    1.1436790304
C        5.1603025577    1.1350345742   -0.2127049326
C        3.5382372493   -0.2581225233    0.4426320914
C        2.3686705432   -1.1811280171    0.3785961021
C        0.3147021112   -1.7215041046   -0.8782692474
N        4.1632910409    0.1452717391    1.5358146059
N        4.1267099277    0.3374739280   -0.6843125757
N        1.5305477178   -0.9419754838   -0.7000397653
O        2.1020077010   -2.0491929533    1.2017013785
H        5.8664073259    1.4984216568    1.8147480696
H        5.8475866258    1.7416605308   -0.7913082110
H       -0.3404755539   -1.6086614955   -0.0077435868
H        0.5591338593   -2.7814737700   -1.0049198977
H       -0.2255764141   -1.3824518756   -1.7673850543
H        3.8950435591    0.1354282713   -1.6524523880
H        1.6723646913   -0.0962062100   -1.2368055795
16   

C        5.0834924882    1.3611867476   -0.2698355068
C        5.2529371576    0.4072198024    0.6871254080
C        3.2538098348    0.1682860226   -0.2934775001
C        1.8966973811   -0.3547988696   -0.6143295699
C        0.3674723093   -2.2780487610   -0.3638029461
N        3.8459737994    1.2043607713   -0.8645657948
N        4.0992671533   -0.3645273030    0.6950835633
N        1.6456277818   -1.6279538838   -0.1148627204
O        1.0445662177    0.2366319884   -1.2674829952
H        5.8044411290    2.1298499507   -0.5243281863
H        6.1276274432    0.3004124588    1.3184809181
H        0.3575048613   -3.2774931498    0.0815661341
H        0.1933216711   -2.3747265044   -1.4409186662
H       -0.4470814801   -1.6939299109    0.0774348395
H        3.8648531208   -1.1051598627    1.3481280802
H        2.4153092140   -2.1619282825    0.2635808771
16   

C        5.0683569237    1.6191910038    0.0278800676
C        5.2975940984    0.5658746974    0.8594315681
C        3.3389142602    0.3012334834   -0.1957897220
C        2.0515908334   -0.2837419663   -0.6657058408
C        0.4727363901   -2.1720700042   -0.4434732826
N        3.8600386838    1.4424515585   -0.6179987562
N        4.2104452714   -0.2886072881    0.7374383993
N        1.7083713091   -1.4962943763   -0.0755069432
O        1.3159360220    0.2185220893   -1.5080828793
H        5.7322377002    2.4648090915   -0.1119952915
H        6.1743323007    0.4398798265    1.4843493328
H        0.3892962465   -3.1252131584    0.0874376431
H        0.4557400053   -2.3731753845   -1.5200037681
H       -0.3912371978   -1.5510500366   -0.1835454977
H        4.0844719971   -1.1788040734    1.2060901048
H        2.2945984982   -1.8828258572    0.6487854524
