24   

C       -1.2774115726   -1.2649265303    2.3563380191
C       -3.7707453852    0.3017770127    3.2429789278
C       -4.9904586694    0.8868078555    1.2460867111
C       -4.9039242526    0.5993874744    4.0099604865
C       -6.1163871109    1.1833449377    2.0223916197
C       -3.7937011450    0.4228059300    1.8364152359
C       -6.0857662328    1.0377688052    3.4099697853
C       -2.6854717471    0.1432730852    0.9320187222
C       -0.4563097753   -0.7182316655    0.1272848779
C       -1.5263417131   -0.5549163862    1.1402471041
C       -1.0325959308    0.8656340280   -3.0396453563
N       -1.0320590489   -1.8550578084    3.3302782582
N       -0.3213327522   -0.2247929657   -1.0872235348
O       -1.2767506957    0.6504008770   -1.6496041258
Cl      -7.4933729925    1.4050966157    4.3759310927
H       -2.8890799577    0.0046658713    3.7918675670
H       -5.0601699415    1.0117668851    0.1713496439
H       -4.8646165490    0.4942726363    5.0880654380
H       -7.0267082938    1.5291215323    1.5466437750
H       -2.8809874256    0.4903461049   -0.0686486517
H        0.3703465277   -1.3541741713    0.4250423135
H       -1.8510731714    1.4473549982   -3.4728652016
H       -0.9635297828   -0.0913733860   -3.5665239158
H       -0.0962778910    1.4153357667   -3.1746549525
24   

C       -1.4364136904   -1.3667452452    2.3139271536
C       -3.6802054034    0.5018741173    3.2273967414
C       -5.0665872739    0.7147059799    1.2621347233
C       -4.7934539739    0.7722427819    4.0322390957
C       -6.1730616966    0.9855830048    2.0754404867
C       -3.7981109251    0.4577746500    1.8240668906
C       -6.0480888574    1.0133715323    3.4665302531
C       -2.7027396075    0.1672812213    0.9032968785
C       -0.5347478455   -0.8386485798    0.1032428799
C       -1.6012822411   -0.6175782986    1.1064087115
C       -0.9015212464    0.9815180694   -2.9652522038
N       -1.2680099555   -1.9815795434    3.2887395333
N       -0.3385723676   -0.3017303314   -1.0835505257
O       -1.1984981123    0.6936380829   -1.5987813720
Cl      -7.4316511249    1.3483875056    4.4779195727
H       -2.7292189912    0.3538091365    3.7231237972
H       -5.2026500776    0.6946051350    0.1866856504
H       -4.6832267363    0.7991232009    5.1101572033
H       -7.1416857644    1.1737679665    1.6272233569
H       -2.9003112555    0.5053593588   -0.1015337900
H        0.2248472856   -1.5604824950    0.3830164473
H       -1.6609811130    1.6532207252   -3.3750980335
H       -0.8917520777    0.0594816385   -3.5552244147
H        0.0775636109    1.4638226498   -3.0418837032
24   

C       -1.5986078793   -1.4125863711    2.2557676346
C       -3.6270546696    0.6887895766    3.1729686468
C       -5.1322617909    0.5678907268    1.2889344638
C       -4.7159180632    0.9234443001    4.0208608514
C       -6.2156340828    0.8040229261    2.1435728426
C       -3.8174139897    0.5104993856    1.7909041406
C       -6.0180896108    0.9835802072    3.5157839507
C       -2.7281872320    0.2210183677    0.8545898188
C       -0.6437834590   -0.9403500709    0.0484648907
C       -1.6954988140   -0.6509689387    1.0481759948
C       -0.7884849689    1.0445110548   -2.9361680719
N       -1.4886244765   -2.0355518045    3.2336327165
N       -0.3933473045   -0.3876051110   -1.1203217487
O       -1.1591403490    0.6977027018   -1.6018019573
Cl      -7.3724694839    1.2753213975    4.5787605642
H       -2.6324602649    0.6602680335    3.6031003163
H       -5.3177029603    0.4211497110    0.2308448053
H       -4.5510401582    1.0592827812    5.0834201309
H       -7.2221410687    0.8444745815    1.7438092192
H       -2.9199134944    0.5704913660   -0.1483988962
H        0.0485014056   -1.7315242055    0.3149060556
H       -1.4819321770    1.7928899200   -3.3298364943
H       -0.8199875694    0.1610500918   -3.5817504047
H        0.2243587495    1.4582298257   -2.9478074494
24   

C       -1.7514287774   -1.4516108780    2.1935438858
C       -3.5938117344    0.8731468340    3.1107691844
C       -5.1726508497    0.4069260850    1.3454396928
C       -4.6545883816    1.0772919897    4.0009473471
C       -6.2293082961    0.6130237613    2.2406540166
C       -3.8387049712    0.5525955059    1.7658020581
C       -5.9806377754    0.9530432312    3.5743345703
C       -2.7520809865    0.2687134559    0.8132435211
C       -0.7573753230   -1.0259882462   -0.0113409060
C       -1.7896336607   -0.6794248021    0.9890873290
C       -0.6710908627    1.1051751669   -2.8960308329
N       -1.6913413945   -2.0858000188    3.1684490076
N       -0.4559789280   -0.4592129836   -1.1609153358
O       -1.1288022679    0.7010032020   -1.6055888839
Cl      -7.3011634953    1.2083293654    4.6880758142
H       -2.5749451365    0.9670920471    3.4701663721
H       -5.3909394636    0.1289044155    0.3205040453
H       -4.4497443581    1.3289082608    5.0350158742
H       -7.2536010693    0.5032379947    1.9041597128
H       -2.9309288691    0.6448878759   -0.1830554314
H       -0.1314905581   -1.8759964046    0.2374215182
H       -1.2940274345    1.9224898294   -3.2699829322
H       -0.7283154107    0.2682228004   -3.5991941095
H        0.3659451463    1.4487717444   -2.8349409825
24   

C       -1.9059342525   -1.5581601301    2.0811488176
C       -3.5778716851    1.0379961209    3.0229352745
C       -5.1808993591    0.2010525089    1.4263857924
C       -4.6076328665    1.2347143804    3.9505687406
C       -6.2076871205    0.3990443246    2.3575485165
C       -3.8562014732    0.5427831302    1.7410110205
C       -5.9318038735    0.9227566613    3.6250802555
C       -2.7725416628    0.2719534532    0.7684737499
C       -0.8532068436   -1.1062679483   -0.0957204453
C       -1.8775702890   -0.7419811384    0.9056471864
C       -0.5609837054    1.1787272298   -2.8456729284
N       -1.9036693486   -2.2341890665    3.0293677693
N       -0.4983055005   -0.5033436869   -1.2109551680
O       -1.0910942807    0.7179735339   -1.6028253140
Cl      -7.2148981805    1.1716014484    4.7831606414
H       -2.5557234055    1.2711587552    3.3000192821
H       -5.4141720151   -0.2207379824    0.4552611791
H       -4.3801388206    1.6266398051    4.9350047907
H       -7.2284246768    0.1401858988    2.1015903306
H       -2.9170840382    0.7237116610   -0.2018872011
H       -0.2859616889   -2.0049546179    0.1202884300
H       -1.1226973418    2.0532941402   -3.1855435787
H       -0.6363727845    0.3941887197   -3.6052399444
H        0.4901625723    1.4574308704   -2.7244379479
24   

C       -2.1254528710   -1.7787548196    1.9040612675
C       -3.6097821825    1.2638359716    2.9019726850
C       -5.1495685352   -0.0083291454    1.5500893830
C       -4.6310532088    1.5135874071    3.8265599122
C       -6.1683212590    0.2433015658    2.4769891885
C       -3.8589542731    0.5002980384    1.7545949253
C       -5.9191099023    1.0069801106    3.6224827648
C       -2.7809228899    0.2383431729    0.7674248840
C       -0.8697170385   -1.1465589655   -0.1158574320
C       -1.9584923745   -0.8398663736    0.8366322714
C       -0.4844610065    1.2012338480   -2.8019905452
N       -2.2380281637   -2.5588601981    2.7613089574
N       -0.4637683527   -0.5048138383   -1.1915007661
O       -1.0907219981    0.6870714294   -1.6164282015
Cl      -7.1914335805    1.3207104972    4.7766816263
H       -2.6165193128    1.6609034855    3.0790312385
H       -5.3598214146   -0.6060014100    0.6702192510
H       -4.4263204133    2.1026056788    4.7128967598
H       -7.1614674530   -0.1577023666    2.3118028465
H       -2.6925928864    0.9817262261   -0.0099426850
H       -0.3056342231   -2.0481793893    0.0962135111
H       -0.9863182570    2.1252123268   -3.1025817762
H       -0.5678477727    0.4728172045   -3.6144418574
H        0.5735313841    1.4156634986   -2.6221844330
24   

C       -2.3068143198   -1.9829255349    1.6964095022
C       -3.6722778619    1.4770679041    2.7335478464
C       -5.0763208709   -0.1945997034    1.7163771697
C       -4.6962184625    1.7849452819    3.6375637239
C       -6.0989645099    0.1151158365    2.6209443734
C       -3.8383306949    0.4617330580    1.7819738871
C       -5.9168390750    1.1038353189    3.5930709194
C       -2.7806753832    0.1955036753    0.7805720432
C       -0.8898110199   -1.1812819192   -0.1498552983
C       -2.0252426290   -0.9344989748    0.7637023620
C       -0.4527622847    1.2977323851   -2.7060458293
N       -2.5179904822   -2.8527820659    2.4412956166
N       -0.4511571406   -0.4799007401   -1.1740359589
O       -1.1111109909    0.6981766604   -1.5902111500
Cl      -7.1917390688    1.4874793048    4.7230290221
H       -2.7372052135    2.0237886963    2.7804847445
H       -5.2404003122   -0.9583669967    0.9642465922
H       -4.5474933220    2.5589969059    4.3813427854
H       -7.0435232152   -0.4138094127    2.5706680839
H       -2.4309517425    1.0723635755    0.2559268142
H       -0.3301075145   -2.0916792395    0.0343823751
H       -0.9041704655    2.2699430481   -2.9227375671
H       -0.5506259657    0.6568480596   -3.5874934673
H        0.6098314162    1.4432773986   -2.4873266202
24   

C       -2.4045044756   -2.0908350861    1.5685902242
C       -3.7335823878    1.6032221534    2.5973365134
C       -4.9901181546   -0.3179667533    1.8742243134
C       -4.7559944440    1.9323335262    3.4954984207
C       -6.0110297646    0.0127952410    2.7731853757
C       -3.8186970429    0.4536530014    1.7981605649
C       -5.9012075458    1.1371819980    3.5964249380
C       -2.7702458919    0.1739658063    0.8026811958
C       -0.9660008305   -1.2430480003   -0.2352532204
C       -2.0825399778   -0.9979280298    0.7024905639
C       -0.3855865040    1.3838442414   -2.6092583149
N       -2.6553754739   -2.9980430107    2.2543091052
N       -0.4935988057   -0.5001807601   -1.2143362529
O       -1.0896960642    0.7363648228   -1.5495078165
Cl      -7.1740521394    1.5476259811    4.7192471518
H       -2.8604477730    2.2425806389    2.5315614022
H       -5.1093592071   -1.1862286416    1.2354921528
H       -4.6652165579    2.8129037351    4.1206910904
H       -6.8990704591   -0.6055853400    2.8326755584
H       -2.3558224704    1.0568792676    0.3392212080
H       -0.4544757493   -2.1918313846   -0.1159352482
H       -0.7786069464    2.3945073377   -2.7507219788
H       -0.5096229392    0.8214659848   -3.5396022865
H        0.6810595241    1.4505022691   -2.3725565247
24   

C       -2.4679749820   -2.1956927552    1.4677553115
C       -3.8034413713    1.6726983745    2.4535328153
C       -4.9153170383   -0.4207628781    2.0429124787
C       -4.8102198053    2.0291280009    3.3585722159
C       -5.9200622798   -0.0617343087    2.9493686080
C       -3.8191535004    0.4288226513    1.8019796723
C       -5.8744854490    1.1629748498    3.6200348641
C       -2.7753754639    0.1255000407    0.8199558773
C       -1.0702088879   -1.3173504063   -0.3448945288
C       -2.1478895431   -1.0738024070    0.6391497175
C       -0.3371028718    1.4422566050   -2.5163888738
N       -2.7189261294   -3.1275409034    2.1197065833
N       -0.5795406998   -0.5437775891   -1.2909840391
O       -1.1059643876    0.7441002466   -1.5367888449
Cl      -7.1281605292    1.6079550837    4.7512293263
H       -2.9942503255    2.3699973498    2.2678705057
H       -5.0067837691   -1.3673083844    1.5228448132
H       -4.7697529151    2.9867266023    3.8644535401
H       -6.7476668584   -0.7373396633    3.1317705482
H       -2.3357754411    1.0043627965    0.3736324421
H       -0.6051410403   -2.2958394990   -0.2952634644
H       -0.6807781898    2.4780461269   -2.5866930555
H       -0.4517942890    0.9631360010   -3.4933374084
H        0.7223105116    1.4406461660   -2.2408532697
24   

C       -2.2736423160   -2.2026881837    1.9966639197
C       -3.9752665186    1.6761355892    2.9367335859
C       -4.7587528948   -0.4140081401    2.0437311949
C       -5.2723114351    1.9792317897    3.3664661008
C       -6.0545851218   -0.1073069314    2.4767660725
C       -3.6820258164    0.4639956177    2.2867020419
C       -6.3234345809    1.0880573482    3.1459273448
C       -2.3100903529    0.2317137599    1.8448447027
C       -0.2622158101   -1.0789696522    1.1804059618
C       -1.6589286615   -0.9563694792    1.6571434247
C        1.3764694689    2.0112163513    0.3912405396
N       -2.7488936643   -3.2343801895    2.2543439932
N        0.5920170416   -0.1689459909    0.7591781245
O        0.2374487722    1.1952474345    0.6654417772
Cl      -7.9411262833    1.4663331251    3.6837758046
H       -3.1857902752    2.3948589451    3.1256147992
H       -4.6280268340   -1.3377372902    1.4951432599
H       -5.4692385601    2.9148307693    3.8768185181
H       -6.8642240621   -0.8019186948    2.2850345414
H       -1.7246297005    1.1366684617    1.8122327810
H        0.1377644894   -2.0870119884    1.1666581066
H        1.0996352940    3.0670735177    0.4580340156
H        1.7505080621    1.8052930478   -0.6161181658
H        2.1725605070    1.8096404408    1.1150815611
24   

C       -2.2786391044   -2.2652813924    1.8139082635
C       -3.9962502427    1.7218619771    2.7597831929
C       -4.7500853089   -0.5027056508    2.2505015989
C       -5.2774028164    2.0544100827    3.2133603836
C       -6.0301534813   -0.1641283528    2.7074005935
C       -3.6928792103    0.4336197520    2.2785337927
C       -6.3061803282    1.1134230612    3.1954181749
C       -2.3293197772    0.1864521292    1.8271843570
C       -0.2971884934   -1.0806074909    1.0404656993
C       -1.6857161834   -0.9904576275    1.5528313242
C        1.4143851155    2.0354104916    0.5660262476
N       -2.7210005133   -3.3253689197    2.0078537326
N        0.5691349144   -0.1497632466    0.6942293270
O        0.2529159115    1.2256709786    0.7490551386
Cl      -7.9052210942    1.5281667230    3.7614149662
H       -3.2269515589    2.4851173032    2.7939206286
H       -4.6441391309   -1.5016125891    1.8549434078
H       -5.4788196334    3.0525987448    3.5844096591
H       -6.8237965312   -0.9017237406    2.6761818548
H       -1.7504752991    1.0933443452    1.7793937850
H        0.0895081833   -2.0874316033    0.9252693040
H        1.1615905037    3.0866814511    0.7300392766
H        1.7967410784    1.9170197225   -0.4522463152
H        2.1956053528    1.7462872271    1.2762024950
24   

C       -2.3531290516   -2.2647241513    1.4857862534
C       -4.0373127282    1.7617579268    2.5824372951
C       -4.7032566264   -0.5445049875    2.4588031237
C       -5.3148357550    2.1102347971    3.0331731567
C       -5.9805369543   -0.1874760344    2.9107248099
C       -3.6934809692    0.4284330712    2.2824798444
C       -6.2995277652    1.1386884050    3.2019113584
C       -2.3348400776    0.1771583629    1.8211768063
C       -0.3013189807   -1.0635485854    1.0022032733
C       -1.7116454066   -0.9874404719    1.4588991893
C        1.5225593982    2.0303357621    0.8204741654
N       -2.8188756891   -3.3326986498    1.4859012902
N        0.6190021820   -0.1357651741    0.8276260537
O        0.3670594868    1.2317271820    1.0740358710
Cl      -7.8947759094    1.5722355427    3.7645221509
H       -3.3050344997    2.5529713303    2.4668927627
H       -4.5754151385   -1.5965069526    2.2663507059
H       -5.5477984245    3.1451358240    3.2553391519
H       -6.7376040080   -0.9528098757    3.0376361659
H       -1.7596940563    1.0851958866    1.7753936168
H        0.0534782576   -2.0601766592    0.7623716450
H        1.2988528677    3.0801349571    1.0299330121
H        1.8240625534    1.9350274076   -0.2271697540
H        2.3502836914    1.7105564085    1.4609791132
24   

C       -2.4820068240   -2.1774514433    1.1749530373
C       -4.1143603163    1.7727936213    2.3879920022
C       -4.6148144859   -0.5605952122    2.6728124839
C       -5.3949804245    2.1051454042    2.8432274621
C       -5.8959629190   -0.2215337445    3.1262975417
C       -3.6926259620    0.4337010917    2.2776639051
C       -6.2999957338    1.1110209651    3.2131388736
C       -2.3392001839    0.1908555698    1.7946307267
C       -0.3271696991   -1.0674404459    0.9450136466
C       -1.7482016734   -0.9634153387    1.3553504108
C        1.5910776624    1.9580709865    1.1234635001
N       -3.0376346320   -3.1886735258    1.0143667258
N        0.6523990663   -0.1858719765    0.9554266380
O        0.4708899341    1.1298941400    1.4357111168
Cl      -7.8983165438    1.5255095069    3.7813525414
H       -3.4447596229    2.5788594881    2.1097192296
H       -4.3806983218   -1.6144913633    2.6783777191
H       -5.6931697941    3.1449124975    2.9110052514
H       -6.5851384127   -1.0039893640    3.4224239686
H       -1.7676245702    1.1008562374    1.7233811735
H       -0.0244542729   -2.0373820777    0.5654418407
H        1.3729005265    2.9938682128    1.3982301046
H        1.8080042064    1.9165391183    0.0513276468
H        2.4717764337    1.6215745135    1.6786428377
24   

C       -2.5848139530   -2.0894642894    1.0455431814
C       -4.2089645702    1.7545393327    2.2272305918
C       -4.5040965444   -0.5452241232    2.8624679702
C       -5.4919159925    2.0507554505    2.7017377071
C       -5.7876643694   -0.2446732348    3.3345926542
C       -3.6928330396    0.4471586397    2.2741271506
C       -6.2960034279    1.0530652877    3.2546497497
C       -2.3362554356    0.2226941760    1.7834328810
C       -0.3848903873   -1.0483246496    0.8200842167
C       -1.7901876614   -0.9211735942    1.2695007613
C        1.6519283848    1.8667688209    1.2799990701
N       -3.2016102540   -3.0598196179    0.8594662858
N        0.6262784080   -0.2070789435    0.8915371677
O        0.4970262077    1.0583777296    1.5059442456
Cl      -7.8971917508    1.4231490864    3.8450234399
H       -3.6144539242    2.5572911898    1.8057382127
H       -4.1564631588   -1.5618116010    2.9929311480
H       -5.8710874004    3.0642864730    2.6419864134
H       -6.3951921657   -1.0264152933    3.7756698368
H       -1.7676815758    1.1349009618    1.6969005486
H       -0.1292386274   -1.9936536043    0.3539108082
H        1.4720851013    2.8801074825    1.6497719073
H        1.8779215230    1.9174447132    0.2100965624
H        2.5131482859    1.4444233574    1.8063203638
24   

C       -2.6695669182   -1.9961642893    0.9648860514
C       -4.2954936764    1.7218235436    2.0816792497
C       -4.3911863389   -0.4900534415    3.0226822231
C       -5.5803014453    1.9849775693    2.5713656527
C       -5.6763491101   -0.2240988298    3.5101934867
C       -3.6882884040    0.4696779680    2.2700833705
C       -6.2855106908    1.0127123665    3.2845225873
C       -2.3200100562    0.2621683884    1.7899872250
C       -0.4413714684   -1.0098599928    0.6950408006
C       -1.8252607721   -0.8645447917    1.1978699391
C        1.7265162582    1.7663304951    1.3740864652
N       -3.3317287046   -2.9353197669    0.7754418701
N        0.5983584467   -0.2079735518    0.7960994273
O        0.5239315447    1.0090118636    1.5099384495
Cl      -7.8891289312    1.3416140024    3.8924223321
H       -3.7722172932    2.4999080480    1.5373883617
H       -3.9455026367   -1.4522118332    3.2471785655
H       -6.0380242852    2.9521818584    2.3994618355
H       -6.2062140994   -0.9827072985    4.0744660424
H       -1.7479527960    1.1740215884    1.7117936301
H       -0.2332435864   -1.9301488229    0.1603041772
H        1.5922041620    2.7563117529    1.8188490549
H        1.9829486891    1.8871086188    0.3167624865
H        2.5494224428    1.2566979116    1.8842243205
24   

C       -2.7295780766   -1.8870816343    0.8738072640
C       -4.3880686924    1.6609959192    1.9425644449
C       -4.2807531528   -0.4013307579    3.1789364435
C       -5.6727698340    1.8953663690    2.4474693994
C       -5.5655285435   -0.1650902921    3.6822623075
C       -3.6862883266    0.4921697844    2.2723346694
C       -6.2760044618    0.9819782521    3.3168497904
C       -2.3051512318    0.3077274377    1.7967008725
C       -0.4902362819   -0.9233996391    0.5591295260
C       -1.8518796346   -0.7833601709    1.1180459170
C        1.7861382165    1.7003121778    1.4573679377
N       -3.4212522994   -2.8021113602    0.6726145756
N        0.5700293177   -0.1535861626    0.6888617491
O        0.5416935720    1.0021450902    1.5013792581
Cl      -7.8794825618    1.2746805687    3.9433497673
H       -3.9390296997    2.3905817907    1.2780780585
H       -3.7456493759   -1.2908749756    3.4927085448
H       -6.2097242391    2.7938102026    2.1664188067
H       -6.0167278491   -0.8755097009    4.3651043434
H       -1.7309485828    1.2209250215    1.7472714624
H       -0.3215135015   -1.8072806965   -0.0461566979
H        1.6940164764    2.6534803581    1.9854761247
H        2.0746079310    1.8984421883    0.4202059991
H        2.5677418708    1.1032176042    1.9367376540
24   

C       -2.8005158607   -1.7609357932    0.7374619397
C       -4.4766389866    1.5482947382    1.8101601004
C       -4.1805235947   -0.2847690089    3.3438705214
C       -5.7655093049    1.7602477351    2.3145162306
C       -5.4693376806   -0.0708832134    3.8470495611
C       -3.6799458227    0.5031366708    2.2969097657
C       -6.2756939730    0.9499527217    3.3337892952
C       -2.2906528192    0.3347038069    1.8132430725
C       -0.5333417953   -0.8455189774    0.4514812373
C       -1.8815513458   -0.7065345451    1.0410199660
C        1.8450424767    1.6045346963    1.5518235525
N       -3.5268849994   -2.6338753545    0.4796549422
N        0.5526223628   -0.1222740303    0.6271945797
O        0.5691418966    0.9645606385    1.5300936486
Cl      -7.8843048508    1.2142446066    3.9597951551
H       -4.0979947532    2.1941099290    1.0259287505
H       -3.5675467698   -1.0758793690    3.7614415342
H       -6.3786318077    2.5598061168    1.9154301352
H       -5.8500711335   -0.7000701972    4.6430679074
H       -1.6940155187    1.2344682212    1.8447013318
H       -0.4016959306   -1.6838482273   -0.2237264037
H        1.7922960098    2.5133749394    2.1577491029
H        2.1520010542    1.8749433874    0.5365560942
H        2.5936223831    0.9333554015    1.9835860093
24   

C       -2.8983802118   -1.5266261128    0.4991649343
C       -4.5765617908    1.3523512345    1.6566901898
C       -4.0787118184   -0.1187921083    3.5019260073
C       -5.8829773895    1.5076607797    2.1356268914
C       -5.3860428694    0.0386988426    3.9777451603
C       -3.6613991638    0.5378197939    2.3353332071
C       -6.2993865453    0.8537473019    3.3002689263
C       -2.2727705683    0.3747913830    1.8349642537
C       -0.5455334083   -0.8084020097    0.4324212601
C       -1.9098598969   -0.6016636496    0.9640328724
C        1.9172374571    1.5269869737    1.5971281461
N       -3.6811540118   -2.2930629709    0.1042564837
N        0.5710411867   -0.1460515894    0.6519520684
O        0.6060427457    0.9683458265    1.5186188031
Cl      -7.9290532063    1.0499352769    3.8961754808
H       -4.2729613656    1.8633645487    0.7498938560
H       -3.3858175064   -0.7580830303    4.0374526327
H       -6.5840006977    2.1376832562    1.6007547796
H       -5.6999550046   -0.4761386250    4.8782069166
H       -1.5687294503    1.0981803217    2.2167551608
H       -0.4341895603   -1.6409591435   -0.2535344923
H        1.9124758368    2.3869205475    2.2727340717
H        2.2465964810    1.8567938071    0.6069782212
H        2.6224577124    0.7817818959    1.9778736820
24   

C       -2.9617596910   -1.2815845733    0.2512960270
C       -4.6674285185    1.1327964140    1.5430777345
C       -3.9880707729    0.0947509093    3.6117530476
C       -5.9774204012    1.2334154875    2.0262368780
C       -5.2997662287    0.1970386134    4.0908330670
C       -3.6519687322    0.5852748686    2.3401144060
C       -6.3045804234    0.7720951379    3.3056043928
C       -2.2745298067    0.4163310155    1.8226651801
C       -0.5624033102   -0.7622489002    0.4051080706
C       -1.9398718424   -0.4912049836    0.8676235329
C        1.9239595057    1.4803375600    1.6925315917
N       -3.7736124761   -1.9339041099   -0.2697774877
N        0.5678741428   -0.1480856004    0.6852620577
O        0.5937021371    0.9919879512    1.5195800225
Cl      -7.9389377741    0.9011391286    3.9069637851
H       -4.4375062314    1.4818692041    0.5424738907
H       -3.2278680225   -0.3686658781    4.2304126263
H       -6.7510545672    1.6668039470    1.4032300917
H       -5.5467908134   -0.1769051606    5.0775322357
H       -1.5029461374    0.8306670750    2.4547629401
H       -0.4556298048   -1.5886360054   -0.2889764981
H        1.9300841328    2.2797738309    2.4386965350
H        2.3039694379    1.8758864023    0.7457404577
H        2.5831299567    0.6754119119    2.0327096899
24   

C       -2.9913604771   -1.1582951188    0.0720565039
C       -4.7466567299    0.9692941402    1.4978499194
C       -3.9207629511    0.2964010866    3.6637401211
C       -6.0383588768    1.0744291675    2.0268323214
C       -5.2149869900    0.4040213892    4.1869898714
C       -3.6664225934    0.5959790239    2.3136018339
C       -6.2840799671    0.7968248510    3.3753018026
C       -2.3050202075    0.4131539902    1.7825601359
C       -0.5940322433   -0.6715029885    0.2890419551
C       -1.9741429113   -0.4198921491    0.7565050256
C        1.9156865412    1.3965180305    1.8042432321
N       -3.8006486270   -1.7618711274   -0.5084555209
N        0.5417339344   -0.0983956132    0.6284768301
O        0.5765266952    0.9721031201    1.5501059581
Cl      -7.8970213732    0.9289237797    4.0313155789
H       -4.5857199316    1.1817379140    0.4466379791
H       -3.1114404038   -0.0250868317    4.3095564932
H       -6.8611977260    1.3683697681    1.3856592341
H       -5.3981446790    0.1757069146    5.2304386648
H       -1.5241843064    0.7465125476    2.4498396942
H       -0.4891465602   -1.4426272093   -0.4662674557
H        1.9229584571    2.1328063581    2.6127774124
H        2.3410327727    1.8525910617    0.9051862784
H        2.5355479528    0.5436781872    2.0985765379
24   

C       -2.9769865097   -1.0998901717   -0.0859867754
C       -4.8124911058    0.7840545568    1.4792303157
C       -3.8572551228    0.4598170298    3.6730562081
C       -6.0809168901    0.9146525568    2.0568293841
C       -5.1291325728    0.5926473774    4.2427637197
C       -3.6781661000    0.5576892843    2.2793291669
C       -6.2515195387    0.8207624038    3.4412006317
C       -2.3295670035    0.3707284678    1.7380345428
C       -0.5976116113   -0.5716251633    0.1710839841
C       -1.9841849656   -0.3786066222    0.6501094653
C        1.8978684537    1.3223027255    1.9188587846
N       -3.7657450988   -1.6867387704   -0.7103848552
N        0.5319289213   -0.0193329327    0.5628022398
O        0.5588477786    0.9649623560    1.5760189414
Cl      -7.8366173829    0.9832144254    4.1556604517
H       -4.7218241058    0.8740005480    0.4027845760
H       -3.0071375848    0.2720378260    4.3192119057
H       -6.9443004795    1.0894458859    1.4254136447
H       -5.2525903094    0.5139308407    5.3165710101
H       -1.5479541106    0.6764375699    2.4166333265
H       -0.4794538484   -1.2763068616   -0.6448001891
H        1.8928258864    1.9800127381    2.7925350576
H        2.3711788212    1.8461380833    1.0829652605
H        2.4820802942    0.4272518063    2.1552000853
24   

C       -2.9449579625   -1.0324092549   -0.2523541701
C       -4.8737345964    0.5950965205    1.4802412234
C       -3.7998424452    0.6202071600    3.6427355037
C       -6.1163742447    0.7579110975    2.1043680272
C       -5.0468079602    0.7844064388    4.2569333631
C       -3.6901476515    0.5129796329    2.2400943754
C       -6.2157916441    0.8511784121    3.4949643825
C       -2.3529707718    0.3251781605    1.6844087405
C       -0.5894891016   -0.4553982485    0.0611949402
C       -1.9843552283   -0.3311422658    0.5425998709
C        1.8807913172    1.2412710309    2.0315724803
N       -3.7035364532   -1.6047083207   -0.9259065436
N        0.5309539841    0.0730532114    0.5091078875
O        0.5463274177    0.9548561775    1.6126590471
Cl      -7.7699602818    1.0526398045    4.2652623231
H       -4.8585286823    0.5597352602    0.3983200266
H       -2.9147309345    0.5655150418    4.2665122323
H       -7.0161091876    0.8162513834    1.5028253240
H       -5.1135742749    0.8580819242    5.3361276762
H       -1.5724678080    0.6212420604    2.3670808045
H       -0.4532222164   -1.0827458145   -0.8129732811
H        1.8610619771    1.8123602592    2.9639929946
H        2.3952648384    1.8295086543    1.2658186364
H        2.4349545523    0.3122758364    2.1994768722
24   

C       -2.9245880131   -0.9216112573   -0.4114408830
C       -4.9312176215    0.3845695168    1.5178686023
C       -3.7690450264    0.7738806212    3.5951830499
C       -6.1520016604    0.5742031365    2.1771491576
C       -4.9945550438    0.9635533167    4.2436128155
C       -3.7078099340    0.4632814722    2.2183410361
C       -6.1969406347    0.8605556730    3.5427670075
C       -2.3785682327    0.2853814995    1.6476461740
C       -0.5904944115   -0.3399877078   -0.0162970103
C       -1.9932225468   -0.2726569041    0.4582696633
C        1.8712330425    1.1272140152    2.1421283871
N       -3.6482660987   -1.4573968529   -1.1505135020
N        0.5259025305    0.1433903765    0.4902876930
O        0.5389189079    0.9049658871    1.6798280872
Cl      -7.7249285142    1.0941832290    4.3551992877
H       -4.9874947837    0.2036683771    0.4543606899
H       -2.8598630587    0.8607086291    4.1794591237
H       -7.0790802965    0.5039507095    1.6199291412
H       -5.0174341351    1.1918976790    5.3028178048
H       -1.5997489330    0.5790059900    2.3313851360
H       -0.4410160532   -0.8784446659   -0.9458987609
H        1.8463470611    1.6123168945    3.1219405310
H        2.4083761301    1.7722309876    1.4403272252
H        2.4059165393    0.1764216608    2.2335188156
24   

C       -2.9225506488   -0.6402457213   -0.5815425741
C       -4.9507866008    0.1258990616    1.6127640356
C       -3.7594659596    0.9528811709    3.5348599623
C       -6.1598507535    0.3241318390    2.2912526470
C       -4.9729366895    1.1472043810    4.2037586087
C       -3.7113908060    0.4357510970    2.2202635520
C       -6.1844987910    0.8346531842    3.5889844704
C       -2.3866524486    0.2816717306    1.6344289465
C       -0.5832660740   -0.2680523876   -0.0392376395
C       -1.9963171791   -0.1813317332    0.4059734288
C        1.9222436128    0.8712734576    2.2750021807
N       -3.6274821982   -1.0265169348   -1.4249103953
N        0.5474178117    0.0608287572    0.5536896498
O        0.5832006242    0.6166128694    1.8514729715
Cl      -7.6984761022    1.0773411872    4.4246322348
H       -5.0484357302   -0.2716296684    0.6156219716
H       -2.8449219725    1.2118643722    4.0565113646
H       -7.0952931703    0.0777431230    1.8021170701
H       -4.9784033479    1.5450974870    5.2118484806
H       -1.6129129226    0.5905754181    2.3150908358
H       -0.4367557760   -0.6732649483   -1.0346914884
H        1.9166903173    1.2857411101    3.2870300848
H        2.4004375901    1.5889391327    1.6013532007
H        2.5008258661   -0.0576419319    2.2765798434
