28   

C       -0.9864302723    0.3276405262    0.5217254035
C       -2.0409334491   -0.5895521099    0.6208309365
C       -1.7878434183    1.4789603780    2.5031844659
C       -3.9210815156    0.3917739006    3.5397769427
C       -2.8339443945    0.5554035221    2.5899832134
C       -0.8416024855    1.3739987380    1.4579442761
C       -2.9511023975   -0.4560451299    1.6616707479
C       -4.6570454247   -0.7109892841    3.1426344409
C       -5.7902527125   -1.3931287484    3.7610273493
C        1.2176043310    2.2844754313    2.5629085752
C       -0.2032468666    3.7696738964    1.0968233553
C        0.3123454342    2.3470648509    1.3292563291
N       -4.0551453581   -1.2375636102    1.9771121499
O       -6.1773432009   -2.5078616311    3.4361591648
O       -6.3724319892   -0.7090113218    4.7738570772
H       -0.2745528247    0.2218149320   -0.2887736812
H       -2.1447443796   -1.3924841940   -0.0980155934
H       -1.7103708667    2.2651779940    3.2438488453
H       -4.1130630754    0.9999326149    4.4155262453
H        0.6734031217    2.5783882288    3.4654246296
H        2.0726790082    2.9562429133    2.4385678776
H        1.5962971858    1.2663578598    2.6984297544
H       -0.8001168453    4.1145144719    1.9465122343
H       -0.8254259902    3.7997453144    0.1966668394
H        0.6363187478    4.4580734103    0.9587482443
H        0.9162814761    2.0657635143    0.4599787424
H       -4.3670052485   -2.0780267167    1.4945209131
H       -7.0858095704   -1.2860249760    5.0903282077
28   

C       -0.7191889284    0.1396854343    0.7973095133
C       -1.7288347481   -0.8220876935    0.9347568278
C       -1.8743698101    1.5911756604    2.3631892089
C       -4.0728014776    0.5522982142    3.3072384975
C       -2.8724268186    0.6206341564    2.4923667291
C       -0.7737940785    1.3587293685    1.5067736094
C       -2.7943241434   -0.5599103386    1.7866857080
C       -4.6811426212   -0.6639054536    3.0512502774
C       -5.8041141019   -1.3321243718    3.7081728754
C        1.0248088594    2.6519740062    2.6881131171
C       -0.1997044922    3.6673091682    0.7277082912
C        0.3382444544    2.3751304827    1.3471040078
N       -3.8866243361   -1.3556469235    2.1081894346
O       -5.9340257219   -2.5466154377    3.7764410529
O       -6.6703825178   -0.4929075641    4.3225477089
H        0.1148320753   -0.0670280610    0.1365845186
H       -1.6780534812   -1.7580877974    0.3929793276
H       -1.9509686708    2.5107380428    2.9299750758
H       -4.4115947437    1.2917204580    4.0227862227
H        0.3239158893    3.0859007362    3.4074563006
H        1.8561627779    3.3502642182    2.5496913323
H        1.4227505917    1.7211806150    3.1047625343
H       -0.9495219520    4.1301472032    1.3763747854
H       -0.6598163253    3.4537190161   -0.2423246023
H        0.6158688467    4.3805506197    0.5729958724
H        1.0935890626    1.9681350006    0.6664262811
H       -4.0548720588   -2.3101668863    1.7973795965
H       -7.3325046956   -1.0709990898    4.7340755589
28   

C       -0.7446478220    0.1688266380    0.7513380180
C       -1.7605354773   -0.7880601461    0.8772761409
C       -1.8844604161    1.6035334391    2.3434998419
C       -4.0776410552    0.5582784488    3.2905572827
C       -2.8882236843    0.6374904885    2.4614863305
C       -0.7881773408    1.3768537200    1.4801650123
C       -2.8211296050   -0.5322207023    1.7373425960
C       -4.6936213610   -0.6508097569    3.0216005853
C       -5.7700641126   -1.3410629969    3.7408592179
C        1.0184154432    2.6416292492    2.6820877996
C       -0.1936590384    3.6894139076    0.7311624310
C        0.3327189493    2.3859262455    1.3362162864
N       -3.9123155624   -1.3301795815    2.0580595241
O       -5.7641513957   -2.5341678982    4.0049147043
O       -6.7434717711   -0.5210689735    4.2005104914
H        0.0865213153   -0.0338970215    0.0857987629
H       -1.7166039934   -1.7167812149    0.3225550731
H       -1.9516062048    2.5134671056    2.9267746493
H       -4.3950389278    1.2790291449    4.0342882601
H        0.3197539116    3.0733805804    3.4048869945
H        1.8559374096    3.3344454966    2.5536112824
H        1.4076447044    1.7029052329    3.0890773261
H       -0.9420687003    4.1495735165    1.3833672567
H       -0.6524069001    3.4909874192   -0.2427171422
H        0.6276360305    4.3984032416    0.5876071942
H        1.0867073053    1.9810411720    0.6527826300
H       -4.0698424538   -2.2867562808    1.7493041049
H       -7.3531921834   -1.1000022868    4.6852069636
28   

C       -0.7784994597    0.1823211079    0.7134480160
C       -1.8012012473   -0.7682043374    0.8332055528
C       -1.8947887758    1.6027746779    2.3345640831
C       -4.0827710294    0.5567259811    3.2907124850
C       -2.9049565100    0.6427401440    2.4465589074
C       -0.8067729577    1.3799742792    1.4599443323
C       -2.8531953196   -0.5166566003    1.7051686344
C       -4.7088442116   -0.6439031980    3.0121550669
C       -5.7521873969   -1.3441299480    3.7827636174
C        1.0149034039    2.6165033245    2.6703073003
C       -0.1953973327    3.6952341154    0.7353314015
C        0.3223811116    2.3810086478    1.3240819490
N       -3.9450213973   -1.3135245886    2.0273412282
O       -5.6274556102   -2.4655034200    4.2472446862
O       -6.8406134542   -0.5867205792    4.0502678105
H        0.0466320382   -0.0177747214    0.0396514058
H       -1.7677760589   -1.6897608981    0.2659786391
H       -1.9495238218    2.5038924700    2.9326229023
H       -4.3785119953    1.2627171148    4.0570348932
H        0.3226872922    3.0466519967    3.4002155430
H        1.8578898315    3.3034866382    2.5462338077
H        1.3975556127    1.6702824713    3.0660196143
H       -0.9382928763    4.1536818019    1.3950183310
H       -0.6585851366    3.5112953005   -0.2392831745
H        0.6310211757    4.3993356504    0.5972552305
H        1.0708476775    1.9774666738    0.6338200009
H       -4.1026195517   -2.2667102933    1.7098838571
H       -7.4119172904   -1.1492059688    4.5970228347
28   

C       -0.7908541648    0.1986827117    0.6994292310
C       -1.8157961419   -0.7490457101    0.8221636173
C       -1.8781961181    1.6038991950    2.3531319741
C       -4.0580945481    0.5560275521    3.3260618367
C       -2.8907037423    0.6466186717    2.4679671617
C       -0.8037338095    1.3874779683    1.4603293935
C       -2.8543700675   -0.5038120861    1.7119098514
C       -4.6915295561   -0.6365995712    3.0422404410
C       -5.7436563493   -1.3296083416    3.8250237614
C        1.0375585638    2.6073536875    2.6586745929
C       -0.1944529114    3.7071945823    0.7494594797
C        0.3269235109    2.3861508870    1.3194867850
N       -3.9462245711   -1.2990274024    2.0381988715
O       -5.5533278557   -2.3220947437    4.5044438432
O       -6.9415058393   -0.7022748450    3.8115625125
H        0.0237943036    0.0035400985    0.0115637963
H       -1.7941981192   -1.6635828470    0.2431603171
H       -1.9209518915    2.4982036034    2.9622782288
H       -4.3407731907    1.2558946932    4.1027154223
H        0.3563111201    3.0331260440    3.4013459924
H        1.8810635983    3.2928171761    2.5297955781
H        1.4222673403    1.6564297369    3.0408760952
H       -0.9276616856    4.1615053177    1.4227138673
H       -0.6704839846    3.5335534812   -0.2208517710
H        0.6321458211    4.4102858343    0.6073736556
H        1.0652132695    1.9867478778    0.6159821563
H       -4.1178161420   -2.2412787244    1.6977879805
H       -7.5114863345   -1.2319659511    4.3913051809
28   

C       -0.7409152599    0.1692354744    0.8096624904
C       -1.7429449974   -0.7940613935    0.9852907026
C       -1.7922545611    1.5820405201    2.4807076359
C       -3.9463953113    0.5322985146    3.5148979507
C       -2.7843277843    0.6106046703    2.6464397143
C       -0.7479936171    1.3700433961    1.5513262412
C       -2.7529426883   -0.5516271151    1.9078591887
C       -4.5678453863   -0.6674623433    3.2654296198
C       -5.7607136132   -1.2733499419    3.9280683613
C        1.1326186695    2.6252952949    2.6392256014
C       -0.2263199655    3.7030394977    0.8045555083
C        0.3512398270    2.3915453568    1.3430213012
N       -3.8345568070   -1.3468125482    2.2642337813
O       -5.7207123935   -2.0011817551    4.8993623941
O       -6.9343355729   -0.9422552376    3.3438255337
H        0.0486755382   -0.0208057053    0.0917919933
H       -1.7300749066   -1.7143326820    0.4151894210
H       -1.8323441227    2.4887944213    3.0713637374
H       -4.2577464406    1.2717180849    4.2423086069
H        0.4853202109    3.0345604411    3.4205890772
H        1.9528342295    3.3285135375    2.4642130908
H        1.5580449037    1.6817038282    2.9955534099
H       -0.9255039232    4.1466022818    1.5197863405
H       -0.7562330271    3.5203446053   -0.1357282866
H        0.5781382813    4.4200110737    0.6131512147
H        1.0545507250    2.0063918853    0.5970047176
H       -4.0457826969   -2.2676691696    1.8904835128
H       -7.6149758217   -1.3888964565    3.8716874259
28   

C       -0.7091443519    0.0989671596    0.9149781549
C       -1.6958780300   -0.8700039513    1.1400919793
C       -1.7279245968    1.5385113243    2.5831319755
C       -3.8724605688    0.5156319156    3.6605215502
C       -2.7064824725    0.5626544005    2.7957487874
C       -0.7081067771    1.3161684004    1.6295472285
C       -2.6829353238   -0.6164552872    2.0843093805
C       -4.4942707223   -0.6959417128    3.4531348401
C       -5.8127149268   -1.1594621454    3.9537379226
C        1.2090991981    2.5936734130    2.6136308801
C       -0.2484027069    3.6544933087    0.8461496453
C        0.3667014608    2.3490487838    1.3590361093
N       -3.7652980864   -1.3995204017    2.4650279407
O       -6.0629183745   -1.5071615922    5.0908484677
O       -6.7349402856   -1.2824774179    2.9707029661
H        0.0591601977   -0.0972770327    0.1760007170
H       -1.6940353364   -1.7993899487    0.5848344119
H       -1.7656608484    2.4611986691    3.1487703130
H       -4.2172298277    1.3032092506    4.3192787166
H        0.5959953124    2.9960779597    3.4256175145
H        2.0114724063    3.3058387212    2.3971891360
H        1.6620969658    1.6552385769    2.9489165234
H       -0.9117671784    4.0976536977    1.5948981240
H       -0.8256535964    3.4644378017   -0.0643419128
H        0.5397136641    4.3762347027    0.6097651171
H        1.0343239038    1.9680937858    0.5788651550
H       -4.0319197448   -2.2903799842    2.0555740228
H       -7.5319543220   -1.6131060088    3.4147412404
28   

C       -0.7026084605    0.1240962582    0.9331296649
C       -1.6959413405   -0.8326668602    1.1813582675
C       -1.6877710456    1.5932645523    2.5953820566
C       -3.8328451403    0.6090382497    3.7041335985
C       -2.6733342200    0.6298775334    2.8303073049
C       -0.6811915561    1.3495792277    1.6332233174
C       -2.6694476992   -0.5585580073    2.1339361548
C       -4.4701540256   -0.6024412540    3.5213735214
C       -5.7970469325   -1.0163893167    4.0153400257
C        1.2703366622    2.6043375530    2.5743331061
C       -0.2087934011    3.6824363907    0.8357598410
C        0.3995759873    2.3693135901    1.3375254672
N       -3.7574169108   -1.3242953078    2.5344287602
O       -6.1430820753   -1.0740225870    5.1799780831
O       -6.6002800624   -1.4865175574    3.0304703893
H        0.0548207463   -0.0881376935    0.1873844712
H       -1.7100289306   -1.7683117969    0.6368880321
H       -1.7105681465    2.5230720852    3.1500827127
H       -4.1683926541    1.4122810120    4.3488603787
H        0.6783461871    3.0136869526    3.3984694618
H        2.0763460410    3.3071042843    2.3413367942
H        1.7190846437    1.6607122992    2.9006495419
H       -0.8491787088    4.1364096472    1.5978915832
H       -0.8084069240    3.4990796437   -0.0615404201
H        0.5838617973    4.3928424020    0.5809017942
H        1.0457780368    1.9791251217    0.5440072118
H       -4.0564461734   -2.2052912068    2.1250324704
H       -7.4164869828   -1.7541913358    3.4825295991
28   

C       -0.7185396680    0.1453879805    0.9037252885
C       -1.7220245881   -0.8037980042    1.1403044632
C       -1.6883401311    1.6049371160    2.5833894295
C       -3.8410039543    0.6292100642    3.6840221314
C       -2.6838802194    0.6492296344    2.8068737726
C       -0.6843127634    1.3621699418    1.6184165934
C       -2.6927679374   -0.5310201551    2.0960621660
C       -4.4920259588   -0.5742330348    3.4858596909
C       -5.8049862226   -0.9857437453    3.9977311689
C        1.2761931140    2.5902935805    2.5775802177
C       -0.1866725837    3.6965189000    0.8430119717
C        0.4076512873    2.3736487840    1.3357578755
N       -3.7876582787   -1.2907541676    2.4894548623
O       -6.2134288495   -0.8290928908    5.1335999578
O       -6.5195907837   -1.7063875451    3.0979954109
H        0.0369979707   -0.0660235504    0.1558381775
H       -1.7456046313   -1.7329514091    0.5851439309
H       -1.7011335183    2.5279570660    3.1496607988
H       -4.1645072747    1.4240966075    4.3453079401
H        0.6854248718    2.9990396008    3.4028871601
H        2.0898715334    3.2869524255    2.3530269025
H        1.7145378226    1.6397946455    2.8980196886
H       -0.8260064385    4.1495605028    1.6066007028
H       -0.7843847355    3.5263539386   -0.0581453059
H        0.6133926932    4.4018562378    0.5974142198
H        1.0531138515    1.9839579441    0.5414011353
H       -4.0987227762   -2.1664738488    2.0766548557
H       -7.3379601895   -1.9412102493    3.5645921689
28   

C       -0.7403431980    0.1702158625    0.8629816932
C       -1.7560257095   -0.7710049536    1.0783457025
C       -1.7069698293    1.6167232575    2.5558136494
C       -3.8732862278    0.6455670734    3.6338154792
C       -2.7145161570    0.6690202032    2.7584787988
C       -0.6981524900    1.3762696348    1.5952451783
C       -2.7310546917   -0.5010328412    2.0304778457
C       -4.5359977470   -0.5478606947    3.4122954464
C       -5.8264074028   -0.9786581975    3.9521444807
C        1.2661746373    2.5700639619    2.5905808896
C       -0.1656484286    3.7135180963    0.8542511853
C        0.4085130045    2.3782527485    1.3370403265
N       -3.8337497869   -1.2567752580    2.4094789964
O       -6.2991767223   -0.6495571103    5.0249264598
O       -6.4499838356   -1.8964074934    3.1706958372
H        0.0191199250   -0.0394114490    0.1185797760
H       -1.7847879119   -1.6925717144    0.5109144889
H       -1.7130859867    2.5310415546    3.1361595866
H       -4.1854099078    1.4266877153    4.3168182045
H        0.6715115839    2.9760155211    3.4144632870
H        2.0902139137    3.2597721056    2.3829664792
H        1.6901137536    1.6108401781    2.9043438673
H       -0.8083554256    4.1641371463    1.6164517400
H       -0.7552779716    3.5609661107   -0.0553403533
H        0.6448023011    4.4128128982    0.6260709297
H        1.0581490474    1.9907764670    0.5450083363
H       -4.1430886295   -2.1354252756    2.0008038526
H       -7.2667931991   -2.1119984380    3.6494178361
28   

C       -0.7424712864    0.2164509741    0.8118376963
C       -1.7697007218   -0.7160283773    1.0097463297
C       -1.6911117827    1.6429871782    2.5316588661
C       -3.8616785239    0.6727133667    3.6019861071
C       -2.7097387755    0.7037895541    2.7175975456
C       -0.6855631697    1.4081556815    1.5662884490
C       -2.7413313608   -0.4518968761    1.9669434484
C       -4.5400916984   -0.5068694271    3.3555514157
C       -5.7976079818   -0.9650496595    3.9413779777
C        1.2833789514    2.5726329283    2.5907565572
C       -0.1223273283    3.7447704595    0.8522113396
C        0.4346226576    2.4000101015    1.3281675419
N       -3.8492570627   -1.2042868511    2.3372983599
O       -6.3343521811   -0.5044209199    4.9328328499
O       -6.3297484681   -2.0337474832    3.2951001825
H        0.0149214155    0.0109381819    0.0641893382
H       -1.8089691437   -1.6271697532    0.4263303535
H       -1.6851013467    2.5456401231    3.1300022972
H       -4.1531785995    1.4343717644    4.3155368925
H        0.6865201819    2.9792777364    3.4126787782
H        2.1168217778    3.2546296351    2.3955364633
H        1.6939352095    1.6064322645    2.9008727393
H       -0.7685495196    4.1938251807    1.6123987609
H       -0.7044422825    3.6058813510   -0.0643867899
H        0.6966402016    4.4386370958    0.6383691213
H        1.0875569970    2.0126965278    0.5387754597
H       -4.1548090674   -2.0879523581    1.9361816827
H       -7.1404136529   -2.2396205647    3.7884544786
28   

C       -0.7819191941    0.2344675957    0.7772702404
C       -1.8239802911   -0.6845614299    0.9601145859
C       -1.7179913650    1.6568754699    2.5073606847
C       -3.9008748495    0.7017331899    3.5659915564
C       -2.7512417769    0.7309735529    2.6785079301
C       -0.7109337614    1.4170242974    1.5448248448
C       -2.7965062945   -0.4160178585    1.9151795193
C       -4.5963085683   -0.4641253137    3.3025064698
C       -5.8215452716   -0.9477713425    3.9326791651
C        1.2683498839    2.5402067248    2.5962836844
C       -0.1047020358    3.7504415176    0.8577556301
C        0.4270731013    2.3927633533    1.3253657661
N       -3.9126727125   -1.1597563642    2.2783025345
O       -6.4421167964   -0.3834280649    4.8158495214
O       -6.2440795653   -2.1388345879    3.4365057759
H       -0.0231858373    0.0249660201    0.0320933431
H       -1.8728188664   -1.5897166847    0.3681660944
H       -1.7004002538    2.5519054170    3.1168278769
H       -4.1728552580    1.4494343982    4.3017116847
H        0.6716408814    2.9489505248    3.4172682353
H        2.1141392490    3.2104905881    2.4139885973
H        1.6609888146    1.5648014390    2.9007552132
H       -0.7502610056    4.2022145444    1.6169035451
H       -0.6811959302    3.6292562697   -0.0648793989
H        0.7267773578    4.4333424798    0.6573570780
H        1.0802633709    2.0023522805    0.5377147123
H       -4.2107457062   -2.0525585311    1.8918954704
H       -7.0526760091   -2.3389843670    3.9356192983
28   

C       -0.7994861407    0.2664482573    0.7399868413
C       -1.8510722214   -0.6446460639    0.9071992616
C       -1.7286485756    1.6759069843    2.4843467031
C       -3.9174267811    0.7216335631    3.5317246204
C       -2.7712555152    0.7577628182    2.6400638241
C       -0.7199115389    1.4382651379    1.5229988987
C       -2.8246560801   -0.3787876707    1.8619304826
C       -4.6235517380   -0.4336223820    3.2503700097
C       -5.8116275527   -0.9527619262    3.9237487212
C        1.2641647672    2.5281352066    2.6014417636
C       -0.0832866059    3.7718180264    0.8664825498
C        0.4304717993    2.4036077550    1.3229360402
N       -3.9442386285   -1.1209381290    2.2175998058
O       -6.5321557814   -0.3307616817    4.6834922571
O       -6.1005622517   -2.2349958517    3.5841065910
H       -0.0392462945    0.0584266485   -0.0040693755
H       -1.9052778662   -1.5426813251    0.3049624029
H       -1.7035773166    2.5618341228    3.1067113245
H       -4.1728502434    1.4516281796    4.2907485013
H        0.6663113364    2.9349629644    3.4225367065
H        2.1187044478    3.1907437028    2.4323278448
H        1.6437586576    1.5452638680    2.8983775887
H       -0.7297904799    4.2218839708    1.6258464658
H       -0.6540746962    3.6668014063   -0.0616587877
H        0.7568702117    4.4479482275    0.6798241041
H        1.0852751800    2.0146180321    0.5359198518
H       -4.2287024532   -2.0231242213    1.8430840894
H       -6.9065111479   -2.4450025305    4.0834099314
28   

C       -0.8611261851    0.2760558443    0.7108639733
C       -1.9256372223   -0.6223054477    0.8646561233
C       -1.7672088447    1.6694186048    2.4800404165
C       -3.9605413343    0.7219725115    3.5239744369
C       -2.8222702783    0.7634211564    2.6227898560
C       -0.7635483315    1.4334936252    1.5129687366
C       -2.8938768942   -0.3582935882    1.8253491966
C       -4.6860709524   -0.4163111872    3.2232415021
C       -5.8386814728   -0.9680592267    3.9368512601
C        1.2287623698    2.4897060954    2.6133010150
C       -0.0916872895    3.7614812098    0.8779492278
C        0.4016746468    2.3840787534    1.3285992324
N       -4.0195387618   -1.0938758591    2.1753896213
O       -6.6632245739   -0.3301812168    4.5660720401
O       -5.9841459309   -2.3054907369    3.7582716282
H       -0.1045286166    0.0689449762   -0.0371515731
H       -1.9928773399   -1.5100970436    0.2487051603
H       -1.7275864413    2.5435876425    3.1180647122
H       -4.1913956110    1.4317547922    4.3094544431
H        0.6317477454    2.9003494714    3.4330711739
H        2.0934180164    3.1414076230    2.4534082276
H        1.5929718012    1.5000621659    2.9069801696
H       -0.7389520799    4.2135322852    1.6355130128
H       -0.6563377922    3.6698218623   -0.0553519412
H        0.7579927623    4.4286982879    0.7027159033
H        1.0568980774    1.9916716978    0.5436288251
H       -4.2971021689   -2.0004186755    1.8067835500
H       -6.7867165054   -2.5335808049    4.2549477386
28   

C       -0.8958474202    0.3007644330    0.6803676833
C       -1.9754847861   -0.5815799594    0.8209258882
C       -1.7866153114    1.6909622863    2.4596797646
C       -3.9938153491    0.7631082391    3.4915516086
C       -2.8566078793    0.8006027990    2.5892876617
C       -0.7827552911    1.4483342784    1.4944973557
C       -2.9432844187   -0.3113765812    1.7803927766
C       -4.7373286877   -0.3591525146    3.1767644894
C       -5.8680229722   -0.9306431795    3.9184847065
C        1.2198022188    2.4620420301    2.6171817353
C       -0.0673853643    3.7691354639    0.8830847776
C        0.3998134781    2.3802880731    1.3260791904
N       -4.0786631350   -1.0355689960    2.1227347029
O       -6.8039965676   -0.3109462785    4.3891141453
O       -5.8585705811   -2.2868306852    3.9318199961
H       -0.1391246201    0.0883059548   -0.0660230442
H       -2.0537548006   -1.4627367496    0.1968090544
H       -1.7346276553    2.5571286828    3.1076346315
H       -4.2058418538    1.4601534517    4.2934061235
H        0.6244138696    2.8766205231    3.4361434209
H        2.0964701856    3.1001332362    2.4681298396
H        1.5652280499    1.4641753008    2.9057000032
H       -0.7126228332    4.2256574372    1.6397018856
H       -0.6267194529    3.6941721466   -0.0548929698
H        0.7944435468    4.4235417623    0.7192755691
H        1.0538880112    1.9830028911    0.5426032324
H       -4.3522600305   -1.9441792349    1.7571910950
H       -6.6627415124   -2.5341125349    4.4163233911
28   

C       -0.9225931622    0.3168767521    0.6560035524
C       -2.0107889452   -0.5566327162    0.7845860859
C       -1.8016131813    1.6928551660    2.4521363363
C       -4.0162755048    0.7696781885    3.4731167595
C       -2.8801353040    0.8110496043    2.5698178143
C       -0.7992616427    1.4528998770    1.4846403638
C       -2.9766721173   -0.2892324606    1.7467820770
C       -4.7699200906   -0.3396920674    3.1436219910
C       -5.8940696780   -0.9315941741    3.8932503350
C        1.2088811351    2.4380239908    2.6240776293
C       -0.0601148658    3.7716128380    0.8966661913
C        0.3928461061    2.3749209803    1.3293646724
N       -4.1176860650   -1.0084220842    2.0803641536
O       -6.9383429236   -0.3764327842    4.1773857444
O       -5.7256675941   -2.2544803116    4.1336363426
H       -0.1671037112    0.1063595844   -0.0921918831
H       -2.0965675519   -1.4293462544    0.1496916891
H       -1.7415011410    2.5498853826    3.1114087244
H       -4.2164471611    1.4540892082    4.2885777136
H        0.6146703981    2.8515140663    3.4444243003
H        2.0921282071    3.0689201893    2.4834495609
H        1.5437830942    1.4345403056    2.9054399043
H       -0.7046044691    4.2270071843    1.6546042522
H       -0.6161130150    3.7097438448   -0.0442505943
H        0.8081289452    4.4197686771    0.7421796606
H        1.0462957581    1.9783676711    0.5449894627
H       -4.3916587154   -1.9114006970    1.7025464392
H       -6.5352031700   -2.5280214119    4.5941012782
28   

C       -0.9246723865    0.2880041611    0.6435242079
C       -1.9992304230   -0.6038823061    0.7579228248
C       -1.8371804811    1.6343521130    2.4456386407
C       -4.0482813151    0.6699306682    3.4391282235
C       -2.9026450488    0.7347729757    2.5486991654
C       -0.8247642070    1.4184656706    1.4827284313
C       -2.9750546680   -0.3601523457    1.7162952580
C       -4.7772240244   -0.4476294908    3.0966810807
C       -5.9288305161   -1.0575531594    3.8076997447
C        1.1706254718    2.4090834081    2.6359559071
C       -0.1198620566    3.7598957710    0.9378421098
C        0.3529021606    2.3610664315    1.3418867596
N       -4.1080096429   -1.0988020431    2.0332411009
O       -7.0651516508   -0.6275459136    3.8273465415
O       -5.6286840594   -2.2533739427    4.3661931717
H       -0.1615145529    0.0962462618   -0.1019356417
H       -2.0672054038   -1.4720190152    0.1146570979
H       -1.7950296459    2.4869541842    3.1119836309
H       -4.2708919799    1.3503247736    4.2519094078
H        0.5715618624    2.7958659200    3.4657689065
H        2.0440948468    3.0559072748    2.5071698833
H        1.5209798683    1.4049396205    2.8953427345
H       -0.7673372638    4.1924916688    1.7064674721
H       -0.6782292560    3.7090245444   -0.0023290070
H        0.7394053234    4.4221238255    0.7931260115
H        1.0097685465    1.9895113575    0.5481698165
H       -4.3739778855   -1.9902508493    1.6246455266
H       -6.4573151898   -2.5562405564    4.7703700041
28   

C       -0.8217961030    0.2400542778    0.7080052743
C       -1.8624535704   -0.6893306935    0.8349899188
C       -1.7635744852    1.5568306757    2.5171151648
C       -3.9601724292    0.5444208695    3.4978403269
C       -2.7970236544    0.6217171810    2.6307390894
C       -0.7540430183    1.3752447829    1.5439518995
C       -2.8371039770   -0.4778500963    1.8021170271
C       -4.6512399243   -0.5942563146    3.1606607866
C       -5.9479945077   -1.1089150896    3.6923408626
C        1.2361654165    2.4194873326    2.6491037740
C       -0.1534838716    3.7538733103    1.0173713162
C        0.3808897522    2.3654029389    1.3805937170
N       -3.9578249853   -1.2386892999    2.1092316851
O       -7.0409112536   -0.8423953158    3.2349022983
O       -5.8117749762   -1.9273975462    4.7599936988
H       -0.0626372244    0.0766679070   -0.0482288570
H       -1.9100860682   -1.5565468460    0.1886559294
H       -1.7494538532    2.4160543588    3.1760687179
H       -4.2459140155    1.2614176459    4.2574945106
H        0.6479630673    2.7657303927    3.5042614420
H        2.0800051567    3.1018826815    2.5073008928
H        1.6318846280    1.4244338629    2.8762460166
H       -0.7882442771    4.1521739815    1.8145277213
H       -0.7414923439    3.6996482908    0.0956187860
H        0.6772426791    4.4478580301    0.8555768659
H        1.0243831884    2.0326866145    0.5591643366
H       -4.2438555732   -2.0939248106    1.6412132767
H       -6.7168096887   -2.1770594828    5.0048993838
28   

C       -0.7439207345    0.1572876106    0.7589806401
C       -1.7460336364   -0.8104601663    0.9106144440
C       -1.6912247054    1.4398044581    2.5891294337
C       -3.8513081735    0.3746548659    3.5871694686
C       -2.6873640433    0.4681730422    2.7247173885
C       -0.6992227966    1.2956433225    1.5923577273
C       -2.7061626816   -0.6339631892    1.8992623511
C       -4.5177212593   -0.7890634660    3.2618941724
C       -5.8931500848   -1.1982705473    3.6370293352
C        1.2926309300    2.4020261366    2.6248766498
C       -0.2159159427    3.7073318208    1.0779221497
C        0.3858895991    2.3342677107    1.3939621740
N       -3.8084683150   -1.4199695957    2.2124622871
O       -6.8444208643   -1.1888765178    2.8768579809
O       -6.0403168725   -1.4929583491    4.9485448486
H        0.0002042575    0.0239533735   -0.0178022090
H       -1.7804572841   -1.6759023123    0.2610650917
H       -1.6985581705    2.3030946563    3.2428448950
H       -4.1830521020    1.1176677361    4.3018651141
H        0.7278034728    2.7086573809    3.5104340641
H        2.1011790750    3.1209406126    2.4599431282
H        1.7374190902    1.4202233710    2.8158936742
H       -0.8267148133    4.0713612999    1.9093957635
H       -0.8436977665    3.6449484004    0.1833085320
H        0.5803558555    4.4342304662    0.8894007174
H        1.0041592424    2.0401073176    0.5391372774
H       -4.1146455848   -2.2441550690    1.7024283977
H       -6.9828550024   -1.6956472727    5.0585042266
28   

C       -0.7579420431    0.1641610388    0.7396950697
C       -1.7583564759   -0.8059158675    0.8876179688
C       -1.6846072563    1.4183046528    2.5998625850
C       -3.8344114143    0.3388104427    3.6042226102
C       -2.6790877344    0.4445102206    2.7316999749
C       -0.7040770975    1.2897772935    1.5897044082
C       -2.7072940606   -0.6447544056    1.8895320975
C       -4.5059452877   -0.8219427994    3.2684075845
C       -5.8724523689   -1.2385256555    3.6315096434
C        1.2965764784    2.3858082902    2.6170231184
C       -0.2290759027    3.7081766528    1.1016530051
C        0.3779033860    2.3322017036    1.3942897885
N       -3.8073502241   -1.4343804316    2.2013736533
O       -6.7562650720   -1.4747885331    2.8241463212
O       -6.1182744114   -1.2205598229    4.9616026637
H       -0.0227036327    0.0429117380   -0.0474550468
H       -1.8004676401   -1.6612184586    0.2251873971
H       -1.6849396402    2.2717170696    3.2664739472
H       -4.1605203914    1.0714987184    4.3322040919
H        0.7401536629    2.6806555276    3.5118491390
H        2.1025572221    3.1078367459    2.4531282526
H        1.7444333561    1.4023064168    2.7913740530
H       -0.8324668494    4.0604138545    1.9435588631
H       -0.8653631171    3.6561701533    0.2123955648
H        0.5641609526    4.4388120272    0.9148010353
H        0.9882080879    2.0498656219    0.5298105250
H       -4.1307745492   -2.2420597470    1.6748471081
H       -7.0537186888   -1.4634517242    5.0491610557
28   

C       -0.7797353458    0.1994893582    0.7074151988
C       -1.7853578394   -0.7663972388    0.8463650645
C       -1.6867330217    1.4299931074    2.5930851541
C       -3.8314042601    0.3422325033    3.6013901004
C       -2.6862605947    0.4602411483    2.7164796972
C       -0.7133569538    1.3111141124    1.5747659783
C       -2.7266015455   -0.6152374097    1.8569288514
C       -4.5104849702   -0.8114995654    3.2529426883
C       -5.8466392577   -1.2737979431    3.6447136256
C        1.2973674678    2.3808109579    2.6116572862
C       -0.2233627274    3.7313698422    1.1161783149
C        0.3755534199    2.3482468397    1.3904107016
N       -3.8258793468   -1.4060724885    2.1674969001
O       -6.6656075215   -1.7429806067    2.8685574269
O       -6.1574039943   -1.0353122539    4.9399902800
H       -0.0496263626    0.0854077351   -0.0855588046
H       -1.8363515510   -1.6118526075    0.1719963590
H       -1.6763817380    2.2719577323    3.2740299464
H       -4.1416067503    1.0567204701    4.3541450718
H        0.7452199388    2.6687861006    3.5113452009
H        2.1079430587    3.0991970486    2.4545324035
H        1.7388977490    1.3922640025    2.7731811721
H       -0.8231942171    4.0764319694    1.9635921947
H       -0.8615305981    3.6942846901    0.2275224872
H        0.5740161549    4.4594069538    0.9370345667
H        0.9822701666    2.0725575595    0.5212719769
H       -4.1575850550   -2.2098153865    1.6391481654
H       -7.0704160388   -1.3480570516    5.0422306965
28   

C       -0.8191413552    0.2272798161    0.6715784952
C       -1.8334233476   -0.7304162060    0.8032395340
C       -1.7038805373    1.4415346315    2.5784259144
C       -3.8450890314    0.3524985424    3.5947048168
C       -2.7118433037    0.4796941691    2.6951716684
C       -0.7369676442    1.3263342780    1.5534605098
C       -2.7672352260   -0.5837428137    1.8212130038
C       -4.5345213537   -0.7925578969    3.2365307664
C       -5.8312240936   -1.3082785185    3.6743937770
C        1.2859690068    2.3634042078    2.6014531505
C       -0.2198968690    3.7442831647    1.1185282420
C        0.3639795976    2.3524589907    1.3797403666
N       -3.8663924167   -1.3734413503    2.1341205072
O       -6.5694137211   -1.9889497970    2.9756171731
O       -6.2046952233   -0.9015006640    4.9101984509
H       -0.0935719710    0.1156996206   -0.1259037729
H       -1.8951545791   -1.5677117952    0.1196291825
H       -1.6799576378    2.2729171114    3.2719239238
H       -4.1330555929    1.0473620820    4.3743037939
H        0.7373075084    2.6497580482    3.5037754004
H        2.1048202607    3.0737589477    2.4508279016
H        1.7161429423    1.3684658834    2.7542128473
H       -0.8168991626    4.0870778594    1.9688682558
H       -0.8576478940    3.7224093109    0.2290756635
H        0.5853063705    4.4655147054    0.9470873927
H        0.9680729187    2.0781554391    0.5083381742
H       -4.1998174982   -2.1830248677    1.6150629789
H       -7.0835703537   -1.2893508583    5.0484065560
28   

C       -0.8908735730    0.2300979241    0.6208647040
C       -1.9188699726   -0.7134182135    0.7474851850
C       -1.7422719069    1.4321052840    2.5507070873
C       -3.8808115058    0.3506523709    3.5824137867
C       -2.7634872413    0.4838179296    2.6633758996
C       -0.7848731470    1.3155519998    1.5169113658
C       -2.8420915450   -0.5664241814    1.7749219287
C       -4.5873763992   -0.7815025797    3.2157750104
C       -5.8371037687   -1.3473621823    3.7156515751
C        1.2532112880    2.3147246279    2.5758930517
C       -0.2276557500    3.7250713281    1.0953550410
C        0.3339327781    2.3235392413    1.3518065007
N       -3.9432575308   -1.3506574958    2.0936547160
O       -6.4818163694   -2.2064048139    3.1287967693
O       -6.2681295229   -0.8125063479    4.8822381694
H       -0.1720626887    0.1169863005   -0.1824998399
H       -1.9972021049   -1.5420426270    0.0550530245
H       -1.6982889381    2.2519859448    3.2568095241
H       -4.1368772128    1.0229423726    4.3924189491
H        0.7078638080    2.6074809366    3.4781432250
H        2.0842827112    3.0116607033    2.4295165560
H        1.6663333682    1.3122237243    2.7263193698
H       -0.8229340751    4.0720463836    1.9452364317
H       -0.8622525536    3.7169761808    0.2034208939
H        0.5889700238    4.4348954966    0.9305526760
H        0.9361845779    2.0432376464    0.4810380010
H       -4.2759734319   -2.1706021749    1.5901492096
H       -7.1027073113   -1.2687511519    5.0754415500
28   

C       -0.9242980533    0.2957629575    0.5687671042
C       -1.9643004124   -0.6367169188    0.6774076696
C       -1.7570471082    1.4679612374    2.5249650488
C       -3.8931746733    0.3776671001    3.5531632264
C       -2.7894558887    0.5299500832    2.6205540444
C       -0.8026223498    1.3604745218    1.4874098154
C       -2.8834675433   -0.4997280770    1.7098120518
C       -4.6110752842   -0.7411827637    3.1681267914
C       -5.8023309394   -1.3745190379    3.7238753191
C        1.2434415983    2.3144846138    2.5756824937
C       -0.2071453696    3.7656574223    1.1045745652
C        0.3328211495    2.3532169749    1.3453706757
N       -3.9849729823   -1.2852652680    2.0236563086
O       -6.3227331952   -2.3789757096    3.2558742072
O       -6.3065837569   -0.7606171305    4.8201214024
H       -0.2068648437    0.1888041048   -0.2366680760
H       -2.0524081506   -1.4517031826   -0.0298827902
H       -1.6990275478    2.2699956226    3.2502941035
H       -4.1200567040    1.0162631304    4.3983812674
H        0.6968253271    2.6040322367    3.4781784819
H        2.0859930758    3.0005028250    2.4440076457
H        1.6404525494    1.3040192287    2.7159389620
H       -0.8047042142    4.1081941158    1.9546792148
H       -0.8345245235    3.7787626527    0.2076180487
H        0.6204687898    4.4663501716    0.9564573041
H        0.9375650731    2.0760030922    0.4753414945
H       -4.3057215292   -2.1159645346    1.5298940434
H       -7.0822978354   -1.2878550947    5.0697343674
