28   

C       -0.9864301988    0.3276405536    0.5217254655
C       -2.0409333309   -0.5895521402    0.6208310272
C       -1.7878434373    1.4789604680    2.5031844493
C       -3.9210815156    0.3917739006    3.5397769427
C       -2.8339443700    0.5554035455    2.5899832379
C       -0.8416024908    1.3739988378    1.4579442692
C       -2.9511023163   -0.4560451490    1.6616708090
C       -4.6570454247   -0.7109892841    3.1426344409
C       -5.7902527125   -1.3931287484    3.7610273493
C        1.2176044571    2.2844756783    2.5629082824
C       -0.2032471487    3.7696740901    1.0968233899
C        0.3123453203    2.3470650786    1.3292562096
N       -4.0551452827   -1.2375636451    1.9771122041
O       -6.1773432009   -2.5078616311    3.4361591648
O       -6.3724318974   -0.7090113874    4.7738571725
H       -0.2745527255    0.2218149589   -0.2887735975
H       -2.1447442045   -1.3924842651   -0.0980154635
H       -1.7103709268    2.2651781500    3.2438487692
H       -4.1130631090    0.9999326209    4.4155262338
H        0.6734033654    2.5783882593    3.4654244772
H        2.0726789885    2.9562433341    2.4385675070
H        1.5962975344    1.2663581634    2.6984292603
H       -0.8001170384    4.1145145751    1.9465123649
H       -0.8254263985    3.7997454986    0.1966669623
H        0.6363183762    4.4580736937    0.9587481920
H        0.9162812485    2.0657638749    0.4599785023
H       -4.3670051463   -2.0780267740    1.4945209917
H       -7.0858094376   -1.2860250772    5.0903283393
28   

C       -0.7191887556    0.1396852575    0.7973098023
C       -1.7288345974   -0.8220878477    0.9347570745
C       -1.8743697241    1.5911755716    2.3631893518
C       -4.0728014776    0.5522982142    3.3072384975
C       -2.8724267599    0.6206340942    2.4923668211
C       -0.7737939384    1.3587292208    1.5067738401
C       -2.7943240465   -0.5599104365    1.7866858623
C       -4.6811426212   -0.6639054536    3.0512502774
C       -5.8041141019   -1.3321243718    3.7081728754
C        1.0248089827    2.6519738848    2.6881133524
C       -0.1997042758    3.6673089506    0.7277083951
C        0.3382446157    2.3751303025    1.3471042370
N       -3.8866242611   -1.3556469956    2.1081895547
O       -5.9340257219   -2.5466154377    3.7764410529
O       -6.6703823580   -0.4929075773    4.3225479527
H        0.1148322940   -0.0670282722    0.1365848787
H       -1.6780533112   -1.7580879737    0.3929796149
H       -1.9509686122    2.5107379681    2.9299751927
H       -4.4115947770    1.2917204770    4.0227861876
H        0.3239160043    3.0859006598    3.4074564997
H        1.8561629129    3.3502640777    2.5496915474
H        1.4227506952    1.7211805112    3.1047628286
H       -0.9495217460    4.1301470636    1.3763748236
H       -0.6598160789    3.4537187300   -0.2423244996
H        0.6158690981    4.3805503548    0.5729959444
H        1.0935892420    1.9681347560    0.6664265699
H       -4.0548719887   -2.3101669667    1.7973797373
H       -7.3325044907   -1.0709991095    4.7340758660
28   

C       -0.7446476122    0.1688263532    0.7513383339
C       -1.7605352662   -0.7880604218    0.8772764863
C       -1.8844603329    1.6035333218    2.3434999296
C       -4.0776410552    0.5582784488    3.2905572827
C       -2.8882236026    0.6374903849    2.4614864398
C       -0.7881772001    1.3768535114    1.4801651970
C       -2.8211294521   -0.5322208836    1.7373428349
C       -4.6936213610   -0.6508097569    3.0216005853
C       -5.7700641126   -1.3410629969    3.7408592179
C        1.0184155776    2.6416290392    2.6820879361
C       -0.1936588728    3.6894136599    0.7311624904
C        0.3327190880    2.3859260222    1.3362164269
N       -3.9123154301   -1.3301797233    2.0580597401
O       -5.7641513957   -2.5341678982    4.0049147043
O       -6.7434715415   -0.5210689062    4.2005108584
H        0.0865215743   -0.0338973699    0.0857991601
H       -1.7166037456   -1.7167815463    0.3225555153
H       -1.9516061767    2.5134670466    2.9267746407
H       -4.3950389829    1.2790292057    4.0342881779
H        0.3197540628    3.0733804230    3.4048871168
H        1.8559375840    3.3344452348    2.5536114041
H        1.4076447846    1.7029050091    3.0890774838
H       -0.9420685737    4.1495733045    1.3833672484
H       -0.6524066809    3.4909871228   -0.2427170996
H        0.6276362093    4.3984029815    0.5876072663
H        1.0867074421    1.9810409021    0.6527827969
H       -4.0698423017   -2.2867564591    1.7493044184
H       -7.3531918725   -1.1000021984    4.6852074582
28   

C       -0.7784991852    0.1823209097    0.7134483739
C       -1.8012009278   -0.7682045722    0.8332059815
C       -1.8947887058    1.6027746598    2.3345641435
C       -4.0827710294    0.5567259811    3.2907124850
C       -2.9049564054    0.6427400923    2.4465590369
C       -0.8067728164    1.3799742006    1.4599444939
C       -2.8531950886   -0.5166567497    1.7051689296
C       -4.7088442116   -0.6439031980    3.0121550669
C       -5.7521873969   -1.3441299480    3.7827636174
C        1.0149034104    2.6165035541    2.6703073216
C       -0.1953973882    3.6952340134    0.7353312732
C        0.3223811637    2.3810086570    1.3240819879
N       -3.9450211804   -1.3135247223    2.0273414870
O       -5.6274556102   -2.4655034200    4.2472446862
O       -6.8406132278   -0.5867204011    4.0502682267
H        0.0466323743   -0.0177749717    0.0396518547
H       -1.7677756446   -1.6897612193    0.2659792120
H       -1.9495238418    2.5038925508    2.9326228068
H       -4.3785120752    1.2627171579    4.0570348228
H        0.3226872205    3.0466521876    3.4002155125
H        1.8578897449    3.3034869773    2.5462337866
H        1.3975557328    1.6702827820    3.0660197200
H       -0.9382929929    4.1536817128    1.3950181227
H       -0.6585851490    3.5112950472   -0.2392832946
H        0.6310210523    4.3993356175    0.5972550457
H        1.0708477731    1.9774666722    0.6338200926
H       -4.1026193015   -2.2667104478    1.7098841561
H       -7.4119169956   -1.1492057431    4.5970233756
28   

C       -0.7908539494    0.1986824591    0.6994294904
C       -1.8157959108   -0.7490459634    0.8221639397
C       -1.8781960481    1.6038991496    2.3531319810
C       -4.0580945481    0.5560275521    3.3260618367
C       -2.8907036580    0.6466186114    2.4679672474
C       -0.8037336669    1.3874778131    1.4603295001
C       -2.8543698880   -0.5038122416    1.7119100849
C       -4.6915295561   -0.6365995712    3.0422404410
C       -5.7436563493   -1.3296083416    3.8250237614
C        1.0375587416    2.6073534585    2.6586746785
C       -0.1944526403    3.7071944061    0.7494595044
C        0.3269236857    2.3861506928    1.3194868660
N       -3.9462243879   -1.2990275470    2.0381991090
O       -5.5533278557   -2.3220947437    4.5044438432
O       -6.9415056937   -0.7022745555    3.8115629175
H        0.0237945720    0.0035397590    0.0115641390
H       -1.7941978340   -1.6635831735    0.2431607558
H       -1.9209518831    2.4982036487    2.9622781006
H       -4.3407732549    1.2558947442    4.1027153532
H        0.3563113162    3.0331258660    3.4013460654
H        1.8810638323    3.2928168781    2.5297956623
H        1.4222674482    1.6564294852    3.0408761994
H       -0.9276614386    4.1615051941    1.4227138313
H       -0.6704836479    3.5335533132   -0.2208517805
H        0.6321461373    4.4102856140    0.6073737187
H        1.0652134369    1.9867476290    0.6159822605
H       -4.1178158983   -2.2412789195    1.6977883283
H       -7.5114861498   -1.2319655752    4.3913057045
28   

C       -0.7409153681    0.1692357571    0.8096623484
C       -1.7429450651   -0.7940611691    0.9852905332
C       -1.7922546273    1.5820406191    2.4807076661
C       -3.9463953113    0.5322985146    3.5148979507
C       -2.7843278143    0.6106047259    2.6464396946
C       -0.7479937127    1.3700436079    1.5513262192
C       -2.7529427163   -0.5516270160    1.9078591025
C       -4.5678453863   -0.6674623433    3.2654296198
C       -5.7607136132   -1.2733499419    3.9280683613
C        1.1326184943    2.6252955061    2.6392257336
C       -0.2263200822    3.7030397511    0.8045556202
C        0.3512397206    2.3915455998    1.3430213787
N       -3.8345568056   -1.3468124961    2.2642337349
O       -5.7207123935   -2.0011817551    4.8993623941
O       -6.9343355797   -0.9422551898    3.3438255806
H        0.0486753944   -0.0208053263    0.0917917882
H       -1.7300749685   -1.7143324025    0.4151891585
H       -1.8323441893    2.4887944645    3.0713638528
H       -4.2577464410    1.2717180664    4.2423086256
H        0.4853199978    3.0345606444    3.4205891831
H        1.9528340714    3.3285137448    2.4642132943
H        1.5580446961    1.6817040272    2.9955535490
H       -0.9255040709    4.1466024894    1.5197864496
H       -0.7562331166    3.5203448917   -0.1357281971
H        0.5781381496    4.4200113551    0.6131513807
H        1.0545506640    2.0063921719    0.5970048144
H       -4.0457826883   -2.2676691094    1.8904834414
H       -7.6149758145   -1.3888963951    3.8716875011
28   

C       -0.7091445665    0.0989673348    0.9149778561
C       -1.6958782840   -0.8700037419    1.1400916463
C       -1.7279246315    1.5385113894    2.5831318829
C       -3.8724605688    0.5156319156    3.6605215502
C       -2.7064825452    0.5626544856    2.7957486780
C       -0.7081068803    1.3161685053    1.6295470431
C       -2.6829355023   -0.6164551227    2.0843091381
C       -4.4942707223   -0.6959417128    3.4531348401
C       -5.8127149268   -1.1594621454    3.9537379226
C        1.2090993946    2.5936731730    2.6136305693
C       -0.2484027220    3.6544935402    0.8461497887
C        0.3667013942    2.3490488592    1.3590359167
N       -3.7652982602   -1.3995202397    2.4650276968
O       -6.0629183745   -1.5071615922    5.0908484677
O       -6.7349401306   -1.2824778971    2.9707028782
H        0.0591599290   -0.0972768226    0.1760003507
H       -1.6940356759   -1.7993896860    0.5848339920
H       -1.7656607890    2.4611986872    3.1487703039
H       -4.2172297743    1.3032091998    4.3192788053
H        0.5959956811    2.9960775257    3.4256174288
H        2.0114725719    3.3058385220    2.3971888427
H        1.6620972211    1.6552382478    2.9489158801
H       -0.9117670172    4.0976538714    1.5948984567
H       -0.8256537797    3.4644382456   -0.0643417064
H        0.5397136829    4.3762348960    0.6097652484
H        1.0343236613    1.9680939493    0.5788647679
H       -4.0319200132   -2.2903797486    2.0555736770
H       -7.5319541131   -1.6131066516    3.4147411305
28   

C       -0.7026086272    0.1240964834    0.9331294591
C       -1.6959415442   -0.8326666154    1.1813579841
C       -1.6877710973    1.5932646417    2.5953820412
C       -3.8328451403    0.6090382497    3.7041335985
C       -2.6733342983    0.6298776291    2.8303072159
C       -0.6811916591    1.3495793837    1.6332232292
C       -2.6694478678   -0.5585578177    2.1339359166
C       -4.4701540256   -0.6024412540    3.5213735214
C       -5.7970469325   -1.0163893167    4.0153400257
C        1.2703366245    2.6043375980    2.5743330587
C       -0.2087934241    3.6824365782    0.8357598677
C        0.3995759150    2.3693137301    1.3375254271
N       -3.7574171021   -1.3242951084    2.5344284756
O       -6.1430820753   -1.0740225870    5.1799780831
O       -6.6002798798   -1.4865180002    3.0304704468
H        0.0548205574   -0.0881374301    0.1873842314
H       -1.7100291919   -1.7683115029    0.6368876696
H       -1.7105681205    2.5230721090    3.1500828135
H       -4.1683925935    1.4122809458    4.3488604929
H        0.6783461861    3.0136869802    3.3984694505
H        2.0763460284    3.3071043057    2.3413367585
H        1.7190845793    1.6607123096    2.9006494293
H       -0.8491787157    4.1364098219    1.5978916296
H       -0.8084069499    3.4990799131   -0.0615404068
H        0.5838618023    4.3928425689    0.5809018541
H        1.0457779428    1.9791252871    0.5440071407
H       -4.0564465265   -2.2052908656    2.1250320015
H       -7.4164867491   -1.7541918983    3.4825296785
28   

C       -0.7185396792    0.1453880424    0.9037252280
C       -1.7220247021   -0.8037978658    1.1403042828
C       -1.6883401000    1.6049371340    2.5833894353
C       -3.8410039543    0.6292100642    3.6840221314
C       -2.6838802612    0.6492297042    2.8068737013
C       -0.6843127044    1.3621699518    1.6184166240
C       -2.6927680568   -0.5310200129    2.0960619828
C       -4.4920259588   -0.5742330348    3.4858596909
C       -5.8049862226   -0.9857437453    3.9977311689
C        1.2761931600    2.5902933298    2.5775805917
C       -0.1866721486    3.6965189416    0.8430122420
C        0.4076514845    2.3736487094    1.3357581149
N       -3.7876584236   -1.2907540121    2.4894546390
O       -6.2134288495   -0.8290928908    5.1335999578
O       -6.5195906100   -1.7063878895    3.0979955525
H        0.0369979958   -0.0660235247    0.1558381614
H       -1.7456047897   -1.7329512399    0.5851436979
H       -1.7011334247    2.5279570381    3.1496608810
H       -4.1645072138    1.4240965534    4.3453080351
H        0.6854248389    2.9990392562    3.4028875212
H        2.0898716066    3.2869521959    2.3530274575
H        1.7145378235    1.6397943561    2.8980200043
H       -0.8260061534    4.1495604969    1.6066008758
H       -0.7843841005    3.5263541533   -0.0581452014
H        0.6133932711    4.4018562311    0.5974147998
H        1.0531141385    1.9839578793    0.5414014424
H       -4.0987229957   -2.1664736167    2.0766545317
H       -7.3379599414   -1.9412107008    3.5645923896
28   

C       -0.7403433753    0.1702160210    0.8629814726
C       -1.7560259070   -0.7710047847    1.0783454478
C       -1.7069698512    1.6167232644    2.5558136421
C       -3.8732862278    0.6455670734    3.6338154792
C       -2.7145162029    0.6690202328    2.7584787439
C       -0.6981525779    1.3762697084    1.5952450930
C       -2.7310548150   -0.5010327392    2.0304776843
C       -4.5359977470   -0.5478606947    3.4122954464
C       -5.8264074028   -0.9786581975    3.9521444807
C        1.2661745918    2.5700639772    2.5905808297
C       -0.1656485678    3.7135181901    0.8542512386
C        0.4085129166    2.3782528286    1.3370402810
N       -3.8337499055   -1.2567751558    2.4094788401
O       -6.2991767223   -0.6495571103    5.0249264598
O       -6.4499837030   -1.8964076918    3.1706959532
H        0.0191196822   -0.0394112278    0.1185794718
H       -1.7847882001   -1.6925714826    0.5109141396
H       -1.7130859441    2.5310414993    3.1361596737
H       -4.1854098747    1.4266876800    4.3168182600
H        0.6715115849    2.9760155232    3.4144632672
H        2.0902138740    3.2597721095    2.3829664060
H        1.6901136982    1.6108401763    2.9043437699
H       -0.8083554904    4.1641372234    1.6164518672
H       -0.7552782105    3.5609662315   -0.0553402411
H        0.6448021456    4.4128129881    0.6260709199
H        1.0581489393    1.9907766030    0.5450082474
H       -4.1430888137   -2.1354251234    2.0008036402
H       -7.2667930409   -2.1119987059    3.6494179630
28   

C       -0.7424711452    0.2164508840    0.8118378682
C       -1.7697005943   -0.7160284604    1.0097464767
C       -1.6911117589    1.6429871620    2.5316589112
C       -3.8616785239    0.6727133667    3.6019861071
C       -2.7097387491    0.7037895343    2.7175975827
C       -0.6855630972    1.4081556393    1.5662885550
C       -2.7413313034   -0.4518969152    1.9669435141
C       -4.5400916984   -0.5068694271    3.3555514157
C       -5.7976079818   -0.9650496595    3.9413779777
C        1.2833790331    2.5726329625    2.5907565948
C       -0.1223273647    3.7447704695    0.8522114867
C        0.4346226838    2.4000101110    1.3281676214
N       -3.8492570493   -1.2042868545    2.3372983685
O       -6.3343521811   -0.5044209199    4.9328328499
O       -6.3297483924   -2.0337475702    3.2951002669
H        0.0149216096    0.0109380528    0.0641895752
H       -1.8089689695   -1.6271698641    0.4263305396
H       -1.6851013627    2.5456401411    3.1300022921
H       -4.1531786147    1.4343717747    4.3155368753
H        0.6865202665    2.9792776568    3.4126788735
H        2.1168217654    3.2546297789    2.3955364838
H        1.6939354392    1.6064323388    2.9008727004
H       -0.7685495950    4.1938251143    1.6123989191
H       -0.7044422944    3.6058813878   -0.0643866613
H        0.6966401348    4.4386371631    0.6383693315
H        1.0875570043    2.0126965913    0.5387754986
H       -4.1548090656   -2.0879523465    1.9361816653
H       -7.1404135472   -2.2396206804    3.7884545974
28   

C       -0.7819191168    0.2344676181    0.7772703309
C       -1.8239802520   -0.6845613868    0.9601145998
C       -1.7179912810    1.6568754208    2.5073608304
C       -3.9008748495    0.7017331899    3.5659915564
C       -2.7512417459    0.7309735424    2.6785079762
C       -0.7109336465    1.4170242590    1.5448250250
C       -2.7965062738   -0.4160178445    1.9151795301
C       -4.5963085683   -0.4641253137    3.3025064698
C       -5.8215452716   -0.9477713425    3.9326791651
C        1.2683499761    2.5402064487    2.5962841399
C       -0.1047016457    3.7504414820    0.8577560133
C        0.4270733231    2.3927632355    1.3253661119
N       -3.9126727042   -1.1597563475    2.2783025289
O       -6.4421167964   -0.3834280649    4.8158495214
O       -6.2440795639   -2.1388345917    3.4365057742
H       -0.0231857453    0.0249660747    0.0320934390
H       -1.8728188440   -1.5897166077    0.3681660587
H       -1.7004001276    2.5519053257    3.1168280822
H       -4.1728552821    1.4494343825    4.3017116920
H        0.6716409411    2.9489503374    3.4172686217
H        2.1141394785    3.2104901721    2.4139891795
H        1.6609887058    1.5648010954    2.9007557138
H       -0.7502605905    4.2022145442    1.6169039317
H       -0.6811955221    3.6292563354   -0.0648790421
H        0.7267778339    4.4333423594    0.6573575176
H        1.0802636460    2.0023521467    0.5377151091
H       -4.2107456855   -2.0525585279    1.8918954883
H       -7.0526760119   -2.3389843846    3.9356192855
28   

C       -0.7994860560    0.2664481177    0.7399869466
C       -1.8510721856   -0.6446461452    0.9071993359
C       -1.7286484650    1.6759068932    2.4843467900
C       -3.9174267811    0.7216335631    3.5317246204
C       -2.7712554726    0.7577627882    2.6400638707
C       -0.7199113924    1.4382649645    1.5229990405
C       -2.8246560435   -0.3787877093    1.8619305398
C       -4.6235517380   -0.4336223820    3.2503700097
C       -5.8116275527   -0.9527619262    3.9237487212
C        1.2641648525    2.5281347635    2.6014422253
C       -0.0832859917    3.7718177339    0.8664827102
C        0.4304721159    2.4036074055    1.3229363439
N       -3.9442385997   -1.1209381584    2.2175998504
O       -6.5321557814   -0.3307616817    4.6834922571
O       -6.1005623231   -2.2349958096    3.5841064892
H       -0.0392462044    0.0584264751   -0.0040692537
H       -1.9052778502   -1.5426814027    0.3049624757
H       -1.7035771555    2.5618340299    3.1067114159
H       -4.1728502573    1.4516281899    4.2907484867
H        0.6663113232    2.9349626343    3.4225370384
H        2.1187046688    3.1907431208    2.4323284608
H        1.6437585326    1.5452633748    2.8983781537
H       -0.7297899948    4.2218837624    1.6258464669
H       -0.6540738595    3.6668011750   -0.0616587713
H        0.7568709680    4.4479478158    0.6798244670
H        1.0852755939    2.0146175495    0.5359203027
H       -4.2287024254   -2.0231242517    1.8430841390
H       -6.9065112442   -2.4450024782    4.0834097948
28   

C       -0.8611262133    0.2760558410    0.7108638993
C       -1.9256372409   -0.6223054542    0.8646560939
C       -1.7672088437    1.6694186015    2.4800403646
C       -3.9605413343    0.7219725115    3.5239744369
C       -2.8222702721    0.7634211494    2.6227898464
C       -0.7635483469    1.4334936228    1.5129686577
C       -2.8938768852   -0.3582936070    1.8253492037
C       -4.6860709524   -0.4163111872    3.2232415021
C       -5.8386814728   -0.9680592267    3.9368512601
C        1.2287624304    2.4897060313    2.6133008385
C       -0.0916873543    3.7614812373    0.8779491620
C        0.4016746126    2.3840787663    1.3285991068
N       -4.0195387315   -1.0938758916    2.1753896642
O       -6.6632245739   -0.3301812168    4.5660720401
O       -5.9841460839   -2.3054906929    3.7582714081
H       -0.1045286699    0.0689449768   -0.0371516785
H       -1.9928773729   -1.5100970460    0.2487051304
H       -1.7275864426    2.5435876468    3.1180646479
H       -4.1913956078    1.4317548018    4.3094544353
H        0.6317478646    2.9003493357    3.4330710782
H        2.0934180592    3.1414075767    2.4534080285
H        1.5929719039    1.5000620840    2.9069798870
H       -0.7389521236    4.2135322946    1.6355129752
H       -0.6563378918    3.6698219158   -0.0553519901
H        0.7579926847    4.4286983269    0.7027158214
H        1.0568979913    1.9916717475    0.5436286366
H       -4.2971021952   -2.0004186776    1.8067835571
H       -6.7867166953   -2.5335807484    4.2549474677
28   

C       -0.8958472841    0.3007642907    0.6803678493
C       -1.9754846018   -0.5815801466    0.8209261232
C       -1.7866152827    1.6909622665    2.4596797794
C       -3.9938153491    0.7631082391    3.4915516086
C       -2.8566078206    0.8006027480    2.5892877280
C       -0.7827552390    1.4483342241    1.4944974037
C       -2.9432842774   -0.3113767143    1.7803929495
C       -4.7373286877   -0.3591525146    3.1767644894
C       -5.8680229722   -0.9306431795    3.9184847065
C        1.2198021623    2.4620421338    2.6171817490
C       -0.0673853740    3.7691354000    0.8830846148
C        0.3998134873    2.3802880611    1.3260791769
N       -4.0786629850   -1.0355691317    2.1227348843
O       -6.8039965676   -0.3109462785    4.3891141453
O       -5.8585707534   -2.2868306930    3.9318196912
H       -0.1391244517    0.0883057779   -0.0660228333
H       -2.0537545542   -1.4627370125    0.1968093891
H       -1.7346276649    2.5571287181    3.1076345726
H       -4.2058419114    1.4601535003    4.2934060661
H        0.6244137684    2.8766206802    3.4361433721
H        2.0964701328    3.1001333297    2.4681298534
H        1.5652279849    1.4641754311    2.9057001112
H       -0.7126229217    4.2256574144    1.6397016278
H       -0.6267193827    3.6941719934   -0.0548931712
H        0.7944435209    4.4235417218    0.7192754170
H        1.0538880707    1.9830028401    0.5426032826
H       -4.3522598710   -1.9441793968    1.7571913318
H       -6.6627417020   -2.5341125513    4.4163230518
28   

C       -0.9225929952    0.3168767279    0.6560037499
C       -2.0107887245   -0.5566328143    0.7845863178
C       -1.8016131736    1.6928551845    2.4521364113
C       -4.0162755048    0.7696781885    3.4731167595
C       -2.8801352433    0.8110495669    2.5698178999
C       -0.7992615697    1.4528999053    1.4846405109
C       -2.9766719467   -0.2892325720    1.7467822601
C       -4.7699200906   -0.3396920674    3.1436219910
C       -5.8940696780   -0.9315941741    3.8932503350
C        1.2088809539    2.4380243667    2.6240779722
C       -0.0601148793    3.7716128435    0.8966661655
C        0.3928461430    2.3749210766    1.3293648863
N       -4.1176858685   -1.0084222318    2.0803643604
O       -6.9383429236   -0.3764327842    4.1773857444
O       -5.7256678139   -2.2544804270    4.1336358848
H       -0.1671035231    0.1063595754   -0.0921916674
H       -2.0965672763   -1.4293464016    0.1496919821
H       -1.7415012272    2.5498854542    3.1114087355
H       -4.2164472363    1.4540892602    4.2885776517
H        0.6146700292    2.8515144642    3.4444244929
H        2.0921279551    3.0689206811    2.4834499875
H        1.5437830198    1.4345407727    2.9054404373
H       -0.7046047521    4.2270071622    1.6546040154
H       -0.6161127537    3.7097436915   -0.0442507700
H        0.8081288830    4.4197687961    0.7421798295
H        1.0462959642    1.9783677121    0.5449898448
H       -4.3916584237   -1.9114009360    1.7025467921
H       -6.5352034622   -2.5280215573    4.5941006761
28   

C       -0.9246721898    0.2880041640    0.6435244664
C       -1.9992301365   -0.6038824150    0.7579231267
C       -1.8371805208    1.6343522072    2.4456387053
C       -4.0482813151    0.6699306682    3.4391282235
C       -2.9026449898    0.7347729612    2.5486992625
C       -0.8247641838    1.4184657876    1.4827285631
C       -2.9750544644   -0.3601524541    1.7162954755
C       -4.7772240244   -0.4476294908    3.0966810807
C       -5.9288305161   -1.0575531594    3.8076997447
C        1.1706253851    2.4090838368    2.6359559343
C       -0.1198623308    3.7598960002    0.9378421569
C        0.3529020458    2.3610667133    1.3418868157
N       -4.1080094249   -1.0988021859    2.0332413195
O       -7.0651516508   -0.6275459136    3.8273465415
O       -5.6286841714   -2.2533741710    4.3661927508
H       -0.1615142973    0.0962462766   -0.1019353257
H       -2.0672050008   -1.4720192016    0.1146574897
H       -1.7950298307    2.4869543598    3.1119836012
H       -4.2708920679    1.3503248265    4.2519093396
H        0.5715617449    2.7958662877    3.4657689401
H        2.0440946618    3.0559078235    2.5071698611
H        1.5209799359    1.4049401095    2.8953427795
H       -0.7673375598    4.1924918482    1.7064675289
H       -0.6782295459    3.7090247166   -0.0023289466
H        0.7394049836    4.4221241360    0.7931260338
H        1.0097684553    1.9895117098    0.5481698605
H       -4.3739776076   -1.9902510426    1.6246458185
H       -6.4573153291   -2.5562408486    4.7703694767
28   

C       -0.8217960935    0.2400542564    0.7080052892
C       -1.8624535263   -0.6893307523    0.8349899676
C       -1.7635745330    1.5568306902    2.5171151215
C       -3.9601724292    0.5444208695    3.4978403269
C       -2.7970236617    0.6217171628    2.6307390812
C       -0.7540430560    1.3752447999    1.5439518714
C       -2.8371039569   -0.4778501437    1.8021170525
C       -4.6512399243   -0.5942563146    3.1606607866
C       -5.9479945077   -1.1089150896    3.6923408626
C        1.2361653950    2.4194874407    2.6491036545
C       -0.1534840505    3.7538733766    1.0173713409
C        0.3808896596    2.3654030122    1.3805936460
N       -3.9578249722   -1.2386893366    2.1092317121
O       -7.0409112536   -0.8423953158    3.2349022983
O       -5.8117749814   -1.9273975032    4.7599937338
H       -0.0626372066    0.0766678843   -0.0482288335
H       -1.9100859745   -1.5565469419    0.1886560225
H       -1.7494539544    2.4160544054    3.1760686324
H       -4.2459140136    1.2614176541    4.2574945036
H        0.6479630969    2.7657305533    3.5042613375
H        2.0800051333    3.1018827766    2.5073006934
H        1.6318846063    1.4244339769    2.8762459227
H       -0.7882444091    4.1521739859    1.8145278129
H       -0.7414925977    3.6996483793    0.0956188577
H        0.6772424578    4.4478581428    0.8555768725
H        1.0243830527    2.0326867347    0.5591642132
H       -4.2438555425   -2.0939248761    1.6412133403
H       -6.7168096946   -2.1770594214    5.0048994349
28   

C       -0.7439209334    0.1572878670    0.7589803870
C       -1.7460338298   -0.8104599189    0.9106141790
C       -1.6912247745    1.4398045564    2.5891293591
C       -3.8513081735    0.3746548659    3.5871694686
C       -2.6873641082    0.4681731310    2.7247173034
C       -0.6992229526    1.2956435238    1.5923575485
C       -2.7061628185   -0.6339630158    1.8992621573
C       -4.5177212593   -0.7890634660    3.2618941724
C       -5.8931500848   -1.1982705473    3.6370293352
C        1.2926308128    2.4020264753    2.6248762978
C       -0.2159163425    3.7073320643    1.0779220064
C        0.3858893542    2.3342679927    1.3939619199
N       -3.8084684488   -1.4199694296    2.2124620903
O       -6.8444208643   -1.1888765178    2.8768579809
O       -6.0403169560   -1.4929579351    4.9485449298
H        0.0002040104    0.0239536995   -0.0178025206
H       -1.7804575133   -1.6759020135    0.2610647563
H       -1.6985581829    2.3030946985    3.2428448942
H       -4.1830520758    1.1176676880    4.3018651764
H        0.7278034288    2.7086577164    3.5104337627
H        2.1011789071    3.1209409847    2.4599426632
H        1.7374190372    1.4202237300    2.8158932884
H       -0.8267151468    4.0713614597    1.9093957076
H       -0.8436982710    3.6449486194    0.1833084610
H        0.5803553729    4.4342307827    0.8894005031
H        1.0041589267    2.0401076758    0.5391369439
H       -4.1146457785   -2.2441548284    1.7024281189
H       -6.9828551065   -1.6956467739    5.0585043075
28   

C       -0.7579422802    0.1641614115    0.7396947980
C       -1.7583567580   -0.8059154653    0.8876176000
C       -1.6846073028    1.4183047599    2.5998625812
C       -3.8344114143    0.3388104427    3.6042226102
C       -2.6790878198    0.4445103513    2.7316998800
C       -0.7040772196    1.2897775225    1.5897043165
C       -2.7072942638   -0.6447541280    1.8895318242
C       -4.5059452877   -0.8219427994    3.2684075845
C       -5.8724523689   -1.2385256555    3.6315096434
C        1.2965764607    2.3858082832    2.6170230806
C       -0.2290759649    3.7081769241    1.1016532449
C        0.3779032997    2.3322019142    1.3942897924
N       -3.8073504249   -1.4343801701    2.2013733658
O       -6.7562650720   -1.4747885331    2.8241463212
O       -6.1182745398   -1.2205593402    4.9616026339
H       -0.0227039222    0.0429121993   -0.0474553806
H       -1.8004680054   -1.6612179488    0.2251868965
H       -1.6849395893    2.2717170610    3.2664740917
H       -4.1605203469    1.0714986410    4.3322041902
H        0.7401537205    2.6806554574    3.5118491653
H        2.1025572551    3.1078366913    2.4531282692
H        1.7444332733    1.4023063589    2.7913738843
H       -0.8324668305    4.0604140277    1.9435592015
H       -0.8653632594    3.6561705645    0.2123958541
H        0.5641608941    4.4388123015    0.9148013049
H        0.9882079472    2.0498659363    0.5298104573
H       -4.1307748948   -2.2420593211    1.6748466562
H       -7.0537188462   -1.4634511273    5.0491610145
28   

C       -0.7797352302    0.1994892481    0.7074153457
C       -1.7853578514   -0.7663972323    0.8463650603
C       -1.6867329063    1.4299930018    2.5930852950
C       -3.8314042601    0.3422325033    3.6013901004
C       -2.6862605841    0.4602411385    2.7164797145
C       -0.7133567739    1.3111139408    1.5747661921
C       -2.7266015995   -0.6152373515    1.8569287917
C       -4.5104849702   -0.8114995654    3.2529426883
C       -5.8466392577   -1.2737979431    3.6447136256
C        1.2973676768    2.3808104351    2.6116577823
C       -0.2233621551    3.7313695981    1.1161786790
C        0.3755537711    2.3482465102    1.3904110872
N       -3.8258794702   -1.4060723610    2.1674967543
O       -6.6656075215   -1.7429806067    2.8685574269
O       -6.1574041374   -1.0353118815    4.9399901763
H       -0.0496261881    0.0854075689   -0.0855585878
H       -1.8363516103   -1.6118525590    0.1719963065
H       -1.6763815752    2.2719575785    3.2740301452
H       -4.1416067406    1.0567204559    4.3541450896
H        0.7452200825    2.6687855944    3.5113456481
H        2.1079433797    3.0991964252    2.4545330372
H        1.7388978174    1.3922634194    2.7731816758
H       -0.8231937367    4.0764317459    1.9635924875
H       -0.8615298916    3.6942845628    0.2275227484
H        0.5740168566    4.4594066071    0.9370350859
H        0.9822705939    2.0725571739    0.5212724345
H       -4.1575852705   -2.2098151548    1.6391479259
H       -7.0704162241   -1.3480565696    5.0422305496
28   

C       -0.8191413898    0.2272799377    0.6715784590
C       -1.8334233687   -0.7304161118    0.8032394666
C       -1.7038805754    1.4415346534    2.5784259328
C       -3.8450890314    0.3524985424    3.5947048168
C       -2.7118433270    0.4796941837    2.6951716478
C       -0.7369676962    1.3263343616    1.5534605146
C       -2.7672352578   -0.5837427649    1.8212129432
C       -4.5345213537   -0.7925578969    3.2365307664
C       -5.8312240936   -1.3082785185    3.6743937770
C        1.2859689172    2.3634042693    2.6014532137
C       -0.2198970544    3.7442832630    1.1185283859
C        0.3639795102    2.3524591136    1.3797404242
N       -3.8663924600   -1.3734412931    2.1341204441
O       -6.5694137211   -1.9889497970    2.9756171731
O       -6.2046953406   -0.9015004298    4.9101983411
H       -0.0935719968    0.1156997918   -0.1259038081
H       -1.8951545736   -1.5677116740    0.1196290800
H       -1.6799576746    2.2729170868    3.2719239926
H       -4.1330555824    1.0473620703    4.3743038084
H        0.7373074036    2.6497580173    3.5037754847
H        2.1048201521    3.0737590441    2.4508280204
H        1.7161428805    1.3684659410    2.7542128272
H       -0.8168993550    4.0870778761    1.9688684257
H       -0.8576481028    3.7224094039    0.2290758227
H        0.5853061242    4.4655148710    0.9470875482
H        0.9680728332    2.0781556450    0.5083382090
H       -4.1998175293   -2.1830248307    1.6150629361
H       -7.0835705072   -1.2893505441    5.0484064214
28   

C       -0.8908737445    0.2300978998    0.6208645104
C       -1.9188701410   -0.7134182255    0.7474850473
C       -1.7422719484    1.4321052511    2.5507069643
C       -3.8808115058    0.3506523709    3.5824137867
C       -2.7634872865    0.4838179177    2.6633758301
C       -0.7848732661    1.3155519720    1.5169111656
C       -2.8420916552   -0.5664241764    1.7749218403
C       -4.5873763992   -0.7815025797    3.2157750104
C       -5.8371037687   -1.3473621823    3.7156515751
C        1.2532110795    2.3147248585    2.5758928105
C       -0.2276559864    3.7250712415    1.0953545483
C        0.3339326254    2.3235392313    1.3518062187
N       -3.9432576353   -1.3506574680    2.0936546504
O       -6.4818163694   -2.2064048139    3.1287967693
O       -6.2681295996   -0.8125062440    4.8822380926
H       -0.1720629095    0.1169862761   -0.1825000796
H       -1.9972023225   -1.5420426375    0.0550528896
H       -1.6982889175    2.2519858973    3.2568094085
H       -4.1368771835    1.0229423750    4.3924189564
H        0.7078635313    2.6074812342    3.4781429209
H        2.0842824397    3.0116609978    2.4295162655
H        1.6663332493    1.3122240146    2.7263192768
H       -0.8229343091    4.0720463903    1.9452359043
H       -0.8622528115    3.7169759181    0.2034204193
H        0.5889697449    4.4348954272    0.9305520481
H        0.9361844771    2.0432375484    0.4810377816
H       -4.2759736121   -2.1706021046    1.5901491276
H       -7.1027074150   -1.2687510170    5.0754414438
28   

C       -0.9242982304    0.2957634011    0.5687669743
C       -1.9643005630   -0.6367165236    0.6774074576
C       -1.7570472104    1.4679613702    2.5249651214
C       -3.8931746733    0.3776671001    3.5531632264
C       -2.7894559569    0.5299501820    2.6205540169
C       -0.8026224894    1.3604748176    1.4874098545
C       -2.8834676401   -0.4997278796    1.7098119225
C       -4.6110752842   -0.7411827637    3.1681267914
C       -5.8023309394   -1.3745190379    3.7238753191
C        1.2434413990    2.3144847320    2.5756827670
C       -0.2071454700    3.7656577346    1.1045748786
C        0.3328210338    2.3532172627    1.3453708858
N       -3.9849730323   -1.2852651467    2.0236562109
O       -6.3227331952   -2.3789757096    3.2558742072
O       -6.3065837455   -0.7606171384    4.8201214131
H       -0.2068650612    0.1888046985   -0.2366682579
H       -2.0524083096   -1.4517026751   -0.0298831301
H       -1.6990276382    2.2699956498    3.2502942958
H       -4.1200566852    1.0162630813    4.3983813096
H        0.6968250866    2.6040322695    3.4781787568
H        2.0859929188    3.0005029178    2.4440080603
H        1.6404522918    1.3040193106    2.7159391451
H       -0.8047043916    4.1081943416    1.9546795078
H       -0.8345245523    3.7787630447    0.2076183131
H        0.6204686932    4.4663505071    0.9564577514
H        0.9375650106    2.0760034596    0.4753417195
H       -4.3057215906   -2.1159643775    1.5298938939
H       -7.0822978198   -1.2878551029    5.0697343873
