31

C     -8.25291    2.75254    0.52602
C     -0.76944    0.01527    0.76589
C      0.20692    0.29458    1.71763
C     -1.49011    0.71677    3.44116
C     -4.36491    0.07189    1.26469
C     -8.64921    2.50522    1.86252
C     -2.48624    0.43061    2.49040
C     -3.93629    0.42063    2.54339
C     -2.10780    0.08536    1.16683
C     -0.16507    0.63942    3.03360
C     -7.87840    1.87727    2.81969
C     -9.81999    2.40849    3.65365
C     -4.70925    0.66794    3.75200
C    -10.82275    2.48314    4.74699
N     -7.83591    2.90388   -0.55524
N     -9.88852    2.82928    2.43501
N     -5.93295    1.06206    3.89466
N     -3.27510   -0.13401    0.45222
N     -6.63936    1.30388    2.73627
O     -8.59721    1.80221    3.96080
Br     1.22468    1.02736    4.30007
H     -0.48958   -0.24587   -0.25110
H      1.25698    0.25128    1.44963
H     -1.74019    0.99828    4.45868
H     -5.36072   -0.11500    0.88725
H     -4.19200    0.52294    4.69843
H    -11.08189    1.48313    5.10935
H    -10.43418    3.05697    5.59456
H    -11.72004    2.97077    4.36479
H     -3.32690   -0.38062   -0.52678
H     -6.11414    1.57667    1.90282
