28

C      2.07168   -4.69085   -4.54879
C      2.29602   -2.98641    1.79955
C      1.15959   -2.95084    2.61190
C      1.07566   -1.89024    0.02190
C      2.56613   -3.73598   -3.62889
C      2.26435   -2.45291    0.50612
C     -0.01142   -2.38780    2.11672
C     -0.06481   -1.85940    0.82367
C      2.97270   -2.38188   -3.86163
C      2.72720   -3.93426   -2.25112
C      2.99466   -1.65398   -5.16770
C      3.50583   -2.46894   -0.36901
N      1.65642   -5.49564   -5.28752
N      3.34484   -1.80013   -2.72964
N      3.20998   -2.77003   -1.75660
N      2.54410   -5.06209   -1.46823
F     -1.10726   -2.36464    2.90015
Br    -1.68926   -1.11218    0.16942
H      3.21015   -3.43484    2.18066
H      1.16281   -3.35902    3.61797
H      1.03856   -1.48032   -0.98287
H      2.00174   -1.64701   -5.62891
H      3.32099   -0.62369   -5.01286
H      3.67815   -2.13919   -5.87230
H      3.99184   -1.49080   -0.37630
H      4.22474   -3.20158    0.01287
H      2.09008   -5.81696   -1.97365
H      2.07833   -4.88337   -0.58236
