31

C     -1.13673    4.50044    0.71267
C     -0.94372    5.80558    1.11286
C      2.21827   -3.16836    0.49699
C      1.05264   -3.47324   -0.15582
C      0.18729   -2.34051   -0.30257
C     -0.10529    3.58447    0.99727
C      0.71835   -1.19086    0.25548
C      0.26041    6.12438    1.77114
C     -0.23460    2.16769    0.60172
C      0.16222    0.13175    0.30741
C     -0.68397   -4.83286   -0.89865
C     -1.19087   -3.62864   -1.67573
C      0.55793    7.52285    2.24262
N      1.02245    3.93403    1.62604
N      1.20227    5.19922    2.01045
N      0.71707    1.20223    0.82449
N     -1.31991    1.73769   -0.01451
O     -1.06573    0.37126   -0.21716
O      0.72571   -4.71411   -0.63720
O     -1.02344   -2.41477   -0.91525
S      2.29415   -1.49962    0.95181
H     -2.03543    4.17258    0.20018
H     -1.69260    6.57214    0.93004
H      3.02860   -3.84511    0.73382
H     -1.22522   -4.93024    0.05084
H     -0.80877   -5.74756   -1.48132
H     -0.65246   -3.53193   -2.62593
H     -2.26136   -3.71156   -1.87182
H     -0.20351    7.86713    2.95121
H      1.53315    7.54741    2.73126
H      0.56461    8.22547    1.40188
