31

C     -4.01538    4.15907   -0.96550
C     -5.75437   -3.23166    1.37766
C     -6.51287   -3.61197    2.48090
C     -5.91235   -1.56238    3.69242
C     -3.82227   -0.17865    1.02155
C     -3.59178    4.72179    0.26260
C     -5.13735   -1.16964    2.58641
C     -4.33328    0.00476    2.30415
C     -5.07263   -2.01200    1.44600
C     -6.58074   -2.77693    3.61546
C     -3.45819    4.03304    1.45097
C     -2.89071    6.11838    1.72747
C     -4.10451    1.08376    3.25482
C     -2.42531    7.27453    2.53565
N     -4.36720    3.60025   -1.92978
N     -3.21696    6.05633    0.47987
N     -3.77897    2.31904    3.05194
N     -4.25743   -1.38212    0.51863
N     -3.62297    2.70596    1.73873
O     -3.01401    4.89366    2.39247
Br    -7.65406   -3.34691    5.10172
H     -5.70255   -3.86782    0.49822
H     -7.05726   -4.55000    2.47047
H     -5.99814   -0.93871    4.57607
H     -3.12466    0.42174    0.45402
H     -4.24359    0.84340    4.30704
H     -3.10968    7.46975    3.36757
H     -1.43224    7.08447    2.95543
H     -2.38142    8.15429    1.89292
H     -4.03548   -1.73345   -0.40292
H     -4.13849    2.18993    1.02248
