44

C      1.08277    4.07617   -5.31997
C      2.44648    4.00112   -5.03390
C      0.22983    3.12105   -4.76084
C      2.88885    2.96563   -4.20169
C      0.76673    2.12273   -3.93714
C     -0.55901    2.53177    0.14637
C     -1.14382    1.30989    0.86489
C     -1.26720   -1.24364    0.90436
C     -0.73476    2.41477   -1.36908
C     -0.28416   -2.39073    0.62608
C     -0.80755    0.00848   -1.24797
C      0.87886   -0.24475    0.60561
C     -0.60620   -0.00263    0.28004
C      2.67564   -3.83915    0.19144
C     -0.11596    1.06423   -3.30777
N      2.08016    2.04660   -3.66445
N     -0.15344    1.16401   -1.85077
N      1.04883   -1.72702    0.56406
O      3.23497   -1.39263   -0.69388
O      1.39235   -2.72916   -1.83079
S      2.11055   -2.32697   -0.60756
H      0.69006    4.86159   -5.96111
H      3.15331    4.71807   -5.44228
H     -0.83939    3.14774   -4.95366
H      3.94689    2.86880   -3.96018
H     -1.04282    3.44831    0.50288
H      0.51038    2.62103    0.36766
H     -0.93359    1.35629    1.94058
H     -2.23715    1.31635    0.75628
H     -2.25949   -1.44889    0.49107
H     -1.37953   -1.09292    1.98394
H     -1.81330    2.47980   -1.62660
H     -0.23408    3.25120   -1.86421
H     -0.29046   -3.14571    1.41831
H     -0.51172   -2.88257   -0.32440
H     -0.38330   -0.89526   -1.69511
H     -1.89698   -0.00118   -1.45972
H      1.55018    0.24775   -0.09696
H      1.12063    0.09840    1.61816
H      3.35776   -4.32420   -0.50904
H      3.18775   -3.56669    1.11387
H      1.81728   -4.48317    0.38713
H     -1.12859    1.12477   -3.75103
H      0.29840    0.08293   -3.55915
