23

C      4.83929   -4.31876   -1.33494
C      1.82102   -1.07222   -0.11810
C      0.73270   -0.51072    0.54720
C      1.80468   -0.98730    2.67082
C      2.91461   -1.62714    0.56635
C      2.86331   -1.57405    1.97075
C      0.74579   -0.47517    1.93896
C      3.75974   -3.70302   -0.55428
C      4.06335   -2.21339   -0.25068
N      5.71058   -4.75685   -1.96901
N      4.18264   -1.48775   -1.52343
N      3.93627   -2.13838    2.81115
O      4.54671   -3.12690    2.38333
O      4.15053   -1.60272    3.90105
F     -0.29760    0.07643    2.59676
H      1.85247   -1.07834   -1.20220
H     -0.11157   -0.09651    0.00462
H      1.81324   -0.94196    3.75332
H      2.83035   -3.77622   -1.12759
H      3.64113   -4.25130    0.38175
H      4.98291   -2.18436    0.34204
H      4.90083   -1.93024   -2.09686
H      4.50068   -0.53638   -1.34432
