36

C      6.19381   -4.24384    4.19757
C      4.54640   -4.74699    3.00521
C      2.73177   -4.12218    0.40123
C      1.37168   -4.35685    2.26445
C      0.13555   -1.92168   -1.34789
C      0.77020   -0.94583   -0.31620
C      7.63050   -5.30571    6.04128
C      8.49037   -5.21051    4.81762
C      0.81999   -3.29634   -1.11591
C      1.99665   -1.68949    0.24231
C      7.38835   -4.17881    5.04123
C      1.55163   -3.16735    0.23306
C      3.55713   -5.58751    2.24804
N      5.60032   -5.29917    3.69834
N      4.47286   -3.43956    3.05638
N      0.71923   -3.52364    1.38868
N      2.54637   -4.78143    1.60145
O      3.66876   -4.27078   -0.36355
O      1.03079   -4.71081    3.37979
O      5.58367   -3.09004    3.86107
H     -0.94730   -1.98773   -1.20922
H      0.30113   -1.57958   -2.37308
H      1.04273    0.01656   -0.75760
H      0.06081   -0.72819    0.49096
H      6.87928   -6.08777    6.07173
H      8.04989   -5.01951    7.00071
H      9.51153   -4.85711    4.92073
H      8.31985   -5.92857    4.02253
H      0.12108   -4.13591   -1.10598
H      1.57266   -3.49119   -1.88495
H      2.85097   -1.59483   -0.43549
H      2.31388   -1.36163    1.23564
H      7.68220   -3.17450    5.32546
H      4.08652   -6.16794    1.48828
H      3.06739   -6.27672    2.93976
H      0.02090   -2.89805    1.76904
