24

C      0.86602   -2.19902    1.04206
C      0.85442   -0.93635    0.43540
C      1.94894   -2.58250    1.82437
C      1.93068   -0.06751    0.61939
C      3.05649   -1.73058    2.02405
C      3.01358   -0.46680    1.40503
C      4.76388   -6.14043    4.23455
C      5.39305   -4.91523    4.66143
C      4.18639   -2.15394    2.85516
N      5.05923   -7.07531    5.10467
N      6.05501   -5.12730    5.76814
N      4.29939   -3.37341    3.25633
N      4.05113   -6.34056    3.07012
N      5.38730   -3.69114    4.01298
O      5.87540   -6.46691    6.05268
Br     4.46329    0.78718    1.59157
H      0.02674   -2.87596    0.90949
H      0.01144   -0.62459   -0.17480
H      1.95500   -3.55058    2.31463
H      1.93324    0.91318    0.15540
H      4.93172   -1.39999    3.12152
H      3.57458   -5.50716    2.74393
H      3.48453   -7.18093    3.06805
H      5.92099   -2.94388    4.45752
