41

C     -5.82486    8.68612   -4.85171
C     -4.91900    7.63208   -4.97631
C     -1.35696   -0.36551   -2.34047
C     -0.76445   -1.44440   -2.99259
C     -1.37568    2.23989   -5.00413
C     -0.54385   -0.12359   -5.02540
C     -5.73750    6.75630   -2.87241
C     -1.14527    0.97525   -4.37427
C     -1.98254    3.29706   -4.36655
C     -6.69438    8.80283   -3.75964
C     -6.64313    7.81327   -2.75310
C     -4.87264    6.65532   -3.97426
C     -1.54284    0.82933   -3.03632
C     -0.36272   -1.31038   -4.33235
C     -2.34507    3.11247   -2.94667
C     -2.15923    4.57749   -5.09535
C     -7.66059    9.96031   -3.66405
C     -7.55514    7.89181   -1.55088
C     -1.23936    4.79973   -6.28447
N     -3.03974    5.52816   -4.94952
N     -4.00874    5.55038   -4.03654
O     -2.81112    3.95584   -2.19701
O     -2.12136    1.87428   -2.37514
Br     0.45462   -2.80172   -5.21348
H     -5.85540    9.44332   -5.63259
H     -4.25244    7.55960   -5.82764
H     -1.67588   -0.43807   -1.30549
H     -0.61308   -2.38250   -2.46941
H     -1.05620    2.34633   -6.03477
H     -0.22908   -0.03039   -6.06016
H     -5.69556    5.99639   -2.09402
H     -8.70211    9.61875   -3.62198
H     -7.48807   10.56062   -2.76234
H     -7.56394   10.62404   -4.52760
H     -7.39706    8.81954   -0.98841
H     -8.61064    7.87719   -1.84728
H     -7.38706    7.05436   -0.86872
H     -1.49600    4.15475   -7.13527
H     -1.34260    5.83313   -6.61583
H     -0.18983    4.61222   -6.03110
H     -3.90380    4.98329   -3.19318
