51

C      1.46072    0.35939   -5.56554
C     -0.82213   -2.37263   -6.56605
C      0.54354   -0.72990   -5.45528
C      0.17004   -1.39635   -6.64223
C     -1.43546   -2.63357   -5.33258
C     -0.07909   -1.11078   -4.22156
C      0.10574   -0.84585    0.66483
C     -0.10491    2.04991    0.56471
C     -2.52757   -0.42722    4.13357
C     -1.89271   -1.59580    4.85989
C     -0.51174    1.26033   -0.67483
C      1.63041   -0.04640   -1.16556
C     -0.54600    1.29349    1.80950
C      1.52938    0.08235   -2.69090
C     -0.45424   -1.01105   -1.79582
C     -1.53681   -1.32101    3.41746
C      0.15464   -0.12721   -0.69355
C      0.81041   -1.03433   -7.95714
C     -2.55632   -3.63448   -5.21023
C     -0.14836   -0.81955    3.07714
N      2.18882    1.25946   -5.72122
N     -1.07010   -2.02562   -4.20039
N      0.25675   -0.58198   -3.01191
N     -0.08936   -0.10032    1.79851
O      0.31195   -2.06271    0.72450
H     -1.13616   -2.90713   -7.45709
H      0.97990    2.20221    0.58765
H     -0.57012    3.04123    0.56654
H     -3.57706   -0.49796    3.86247
H     -2.20364    0.57167    4.41453
H     -1.14569   -1.37277    5.61761
H     -2.50729   -2.46325    5.08022
H     -1.60196    1.13415   -0.67351
H     -0.26488    1.80656   -1.59067
H      2.13622   -0.97673   -0.89524
H      2.18059    0.78610   -0.72039
H     -0.14137    1.76803    2.71021
H     -1.64097    1.32359    1.89634
H      1.52140    1.12818   -3.01006
H      2.36669   -0.40766   -3.19617
H     -0.27764   -2.06892   -1.58641
H     -1.52954   -0.86236   -1.91337
H     -1.94352   -2.00921    2.68100
H      0.60222    0.00880   -8.21740
H      1.89922   -1.13465   -7.90620
H      0.43804   -1.67296   -8.76118
H     -2.29668   -4.39974   -4.47220
H     -3.46362   -3.13667   -4.85223
H     -2.77469   -4.12020   -6.16436
H      0.54292   -1.66103    3.01286
H      0.20811   -0.13949    3.85969
