51

C     -2.03609    2.44685   -2.51555
C     -3.58658   -0.19725   -4.58242
C     -2.28358    1.15675   -3.07635
C     -3.40326    1.01782   -3.92540
C     -2.64225   -1.21977   -4.40983
C     -1.40947    0.03379   -2.89278
C     -0.08704   -0.46857    1.08732
C      1.02987    2.15729    1.68082
C      0.16701   -2.57448    3.98209
C     -1.06911   -2.53959    4.85630
C      1.77220    1.23528    0.71763
C      1.51953   -0.77204   -0.84432
C      0.38945    1.32548    2.78396
C      0.51003   -1.16189   -1.92447
C     -0.14828    0.97495   -0.94234
C     -0.48586   -1.25082    4.31716
C      0.79935    0.25277    0.05663
C     -4.35386    2.16839   -4.13291
C     -2.76334   -2.53043   -5.14528
C     -1.23541   -0.49844    3.23546
N     -1.86877    3.52912   -2.10816
N     -1.59368   -1.10549   -3.59129
N     -0.34521    0.03258   -2.04365
N     -0.35849    0.17456    2.26776
O     -0.59985   -1.55847    0.80819
H     -4.43514   -0.34169   -5.24376
H      1.71125    2.88337    2.13634
H      0.26362    2.72677    1.14337
H      1.11761   -2.80851    4.45317
H      0.05596   -2.93264    2.96383
H     -2.00206   -2.89065    4.42360
H     -0.95938   -2.74730    5.91670
H      2.28929    1.80991   -0.05874
H      2.54089    0.67336    1.26474
H      1.86612   -1.64164   -0.28262
H      2.39063   -0.28334   -1.29510
H      1.16893    0.97081    3.47396
H     -0.30411    1.93683    3.37224
H      0.97799   -1.38726   -2.88625
H     -0.08944   -2.02133   -1.62079
H     -1.10330    1.23956   -0.48262
H      0.31768    1.90378   -1.28964
H      0.03289   -0.62905    5.04403
H     -4.76619    2.51571   -3.18021
H     -3.83891    3.02323   -4.58371
H     -5.18016    1.87816   -4.78563
H     -1.86255   -2.70872   -5.74131
H     -2.84413   -3.35470   -4.42944
H     -3.63406   -2.54857   -5.80527
H     -1.88150    0.26502    3.68613
H     -1.86547   -1.18639    2.67190
