44

C      3.33961   -1.02384   -4.06433
C      2.90022   -1.57590   -5.27027
C      2.54377   -0.06655   -3.43891
C      1.67343   -1.14863   -5.78316
C      1.31873    0.28357   -4.02120
C     -0.26240    2.23003    0.23550
C     -0.78045    0.88058    0.74832
C     -0.63600   -1.66240    0.45685
C     -0.33983    2.30232   -1.29092
C      0.47928   -2.65891    0.11310
C     -0.19546   -0.09715   -1.47646
C      1.40570   -0.41022    0.45467
C     -0.07569   -0.28717    0.04709
C      3.92539   -3.34177    0.80359
C      0.40145    1.29713   -3.36438
N      0.88475   -0.24940   -5.17531
N      0.37274    1.18066   -1.90468
N      1.71222   -1.85411    0.29841
O      3.94882   -1.16517   -0.69679
O      2.78194   -3.26026   -1.56843
S      3.11304   -2.35078   -0.46337
H      4.27182   -1.33927   -3.60601
H      3.48052   -2.33039   -5.79405
H      2.84438    0.37589   -2.49645
H      1.29476   -1.55760   -6.71933
H     -0.84496    3.05044    0.66941
H      0.77897    2.37341    0.54599
H     -0.65062    0.80337    1.83470
H     -1.85860    0.80755    0.55152
H     -1.57107   -1.90712   -0.05571
H     -0.83165   -1.67066    1.53504
H     -1.40362    2.31707   -1.60433
H      0.11254    3.23471   -1.64516
H      0.48184   -3.52745    0.77947
H      0.40743   -3.01987   -0.91631
H      0.33014   -0.90058   -1.99892
H     -1.26426   -0.17395   -1.75920
H      2.06052    0.19850   -0.16523
H      1.54757   -0.12135    1.50347
H      4.84338   -3.73744    0.36473
H      4.14585   -2.69599    1.65383
H      3.25796   -4.15638    1.08838
H      0.75586    2.30659   -3.60793
H     -0.59879    1.18962   -3.81698
