35

C     -0.85302   -4.09265    2.50917
C     -0.68663   -1.86081    1.05523
C      0.47612    0.13547    3.42944
C     -0.52487   -1.04523   -0.12264
C      1.70961    0.46762    2.77231
C      0.87981   -0.54937    4.54841
C     -1.33211   -1.83772    2.31622
C     -0.09924   -3.08034    0.69648
C     -1.08423    0.30548   -0.45415
C      1.93355    1.20204    1.48505
C      0.16776   -1.21810    5.67531
C     -2.84568   -0.82211    3.93174
C     -0.92483    0.47648    2.98370
N     -1.44255   -2.98861    3.00344
N     -0.12884   -4.21559    1.39167
N      0.14245   -1.69815   -1.04637
N      2.75252    0.02768    3.44459
N     -1.84643   -0.68147    2.86995
O      2.22795   -0.62533    4.56948
O      0.44657   -2.98611   -0.53216
H     -0.96766   -4.99490    3.10671
H     -0.49051    1.11303   -0.01968
H     -1.09168    0.43929   -1.53773
H     -2.10598    0.39304   -0.07424
H      1.34038    2.12058    1.43913
H      2.98909    1.46592    1.39337
H      1.66761    0.57610    0.62820
H     -0.37496   -2.09940    5.31965
H      0.88969   -1.53040    6.43293
H     -0.55286   -0.53884    6.14129
H     -3.40082    0.11726    4.00464
H     -2.41780   -1.06129    4.91032
H     -3.54091   -1.61856    3.66627
H     -1.39474    1.16420    3.69250
H     -0.87592    1.01223    2.03511
