24   
Generated by ForceBalance from scan.xyz: Frame 1 of 7
C        1.3497139401   -1.0089532262   -1.5517883322
C        0.0930520553   -1.1067875017   -0.8486536699
C        2.2348724250   -2.0523449476   -1.6453597166
C       -0.3325731974   -2.2488099524   -0.2154936170
C        1.8848878650   -3.2514551612   -0.9577993049
C        0.6005939289   -3.3353612547   -0.2071426165
C       -2.6075354581   -3.1980201854   -0.5145842563
C       -2.3635841838   -1.1053911306    0.7916608784
C       -3.6032491521   -2.6066250620   -1.1949718642
C       -3.3782092984   -0.5923565586    0.0735761404
C       -1.7051877326   -2.4195671469    0.4313673048
N        2.4835522187   -4.4425882749   -0.9279327614
N        0.4072213816   -4.6353542795   -0.0445851414
N       -3.9190263985   -1.2522534224   -1.0318871277
O        1.7377027329   -5.0765831522    0.0758912474
H        1.5944591229   -0.0600008506   -2.0222008561
H       -0.5597037924   -0.2380124373   -0.8409540811
H        3.1779198786   -1.9688467914   -2.1761760857
H       -2.3974813997   -4.2498331555   -0.6765763058
H       -1.9856519607   -0.5473061966    1.6427864399
H       -4.2184211135   -3.1468292482   -1.9079701794
H       -3.8329806096    0.3635047308    0.3159613154
H       -1.5449028822   -3.0164791945    1.3388058400
H       -4.8376448880   -0.9590033202   -1.3339580919
24   
Generated by ForceBalance from scan.xyz: Frame 2 of 7
C        1.3560603969   -0.9841729362   -1.5518415145
C        0.0928688119   -1.0865661880   -0.8625063384
C        2.2421287170   -2.0270332317   -1.6360522340
C       -0.3296220143   -2.2331265008   -0.2369979309
C        1.8691818281   -3.2310999234   -0.9672105644
C        0.6029215668   -3.3217764820   -0.2520816715
C       -2.6041616531   -3.1943997733   -0.5186255705
C       -2.3588635175   -1.0973269547    0.7797644926
C       -3.6100484574   -2.6089641302   -1.1890695933
C       -3.3837314298   -0.5909899907    0.0717041873
C       -1.6971999752   -2.4094533679    0.4175218754
N        2.4784946201   -4.4102065849   -0.9099393252
N        0.4162031716   -4.6025377065    0.0362988540
N       -3.9329779596   -1.2563151839   -1.0263531639
O        1.7027277740   -5.1179909985   -0.0050892169
H        1.6050859443   -0.0349882360   -2.0193872802
H       -0.5613234338   -0.2191499655   -0.8522545554
H        3.1906232329   -1.9475048661   -2.1569991558
H       -2.3908545796   -4.2454205125   -0.6815158292
H       -1.9741889920   -0.5343913461    1.6246301336
H       -4.2292436934   -3.1541073951   -1.8948049489
H       -3.8404793599    0.3633087924    0.3165899141
H       -1.5282623187   -3.0029366978    1.3258380401
H       -4.8566550426   -0.9694875495   -1.3188856545
24   
Generated by ForceBalance from scan.xyz: Frame 3 of 7
C        1.3605703132   -0.9705771038   -1.5502071990
C        0.0901163295   -1.0757690404   -0.8751537905
C        2.2488970867   -2.0117379631   -1.6239730757
C       -0.3326892301   -2.2234102766   -0.2532821148
C        1.8586643082   -3.2216124942   -0.9736361279
C        0.5933209361   -3.3184283950   -0.2890645079
C       -2.6084092670   -3.1894696429   -0.5188656792
C       -2.3577868751   -1.0863694400    0.7688133863
C       -3.6215830290   -2.6098534280   -1.1833711296
C       -3.3898676340   -0.5861075815    0.0670386824
C       -1.6967423588   -2.3992351187    0.4081813351
N        2.4781747908   -4.3899428841   -0.8898315570
N        0.4302292461   -4.5717319268    0.1091945309
N       -3.9474036210   -1.2577480047   -1.0230074688
O        1.6629803581   -5.1532108447   -0.0845826939
H        1.6133812541   -0.0213828837   -2.0156096814
H       -0.5649853334   -0.2091657449   -0.8668619414
H        3.2036770187   -1.9328323383   -2.1330400427
H       -2.3933880251   -4.2403681793   -0.6802525620
H       -1.9667415348   -0.5179131130    1.6070244519
H       -4.2443599360   -3.1595270831   -1.8824307268
H       -3.8463545317    0.3685551379    0.3109702661
H       -1.5225053916   -2.9880411219    1.3186851387
H       -4.8744733635   -0.9748178807   -1.3084650904
24   
Generated by ForceBalance from scan.xyz: Frame 4 of 7
C        1.3629594574   -0.9694340339   -1.5547825427
C        0.0855181888   -1.0778756782   -0.8937191135
C        2.2564517022   -2.0068927974   -1.6143614593
C       -0.3372686432   -2.2242021847   -0.2700698106
C        1.8562587860   -3.2218886769   -0.9788715723
C        0.5815537276   -3.3249058549   -0.3207779744
C       -2.6166618193   -3.1862053881   -0.5244872641
C       -2.3549246996   -1.0834645864    0.7618268211
C       -3.6342650310   -2.6056224939   -1.1813946800
C       -3.3917751848   -0.5823605638    0.0678058832
C       -1.6986647424   -2.3977122161    0.3976272809
N        2.4895923032   -4.3796294413   -0.8667506132
N        0.4600035594   -4.5451110534    0.1795340131
N       -3.9585792571   -1.2536116133   -1.0178030871
O        1.6283469459   -5.1817709242   -0.1580977566
H        1.6168340017   -0.0211642224   -2.0214683799
H       -0.5719179807   -0.2130657423   -0.8919582718
H        3.2172559810   -1.9255517360   -2.1114909392
H       -2.4032277751   -4.2369948346   -0.6888590543
H       -1.9561693192   -0.5145910668    1.5961053184
H       -4.2617592017   -3.1544630973   -1.8768878041
H       -3.8449477358    0.3731267509    0.3146454797
H       -1.5212363510   -2.9864101984    1.3075999707
H       -4.8880521459   -0.9705482107   -1.2952212718
24   
Generated by ForceBalance from scan.xyz: Frame 5 of 7
C        1.3738964453   -0.9487213529   -1.5311108468
C        0.0894920224   -1.0662465109   -0.8854079548
C        2.2722951610   -1.9823383654   -1.5885963021
C       -0.3355101086   -2.2177320275   -0.2726033249
C        1.8646833315   -3.2098771105   -0.9833696138
C        0.5718363075   -3.3256481050   -0.3497377202
C       -2.6120227891   -3.1913786436   -0.5135311359
C       -2.3550844317   -1.0800239093    0.7594040265
C       -3.6324673268   -2.6181180139   -1.1724658235
C       -3.3946939716   -0.5864893298    0.0640307186
C       -1.6942596137   -2.3933210472    0.4004291990
N        2.5133340462   -4.3605062493   -0.8555760301
N        0.5064401588   -4.5151283820    0.2294469985
N       -3.9601365774   -1.2660011815   -1.0170618901
O        1.5975583062   -5.1937426066   -0.2539751726
H        1.6292592947    0.0038971822   -1.9880634361
H       -0.5688198081   -0.2020899022   -0.8807946903
H        3.2387338837   -1.8915258189   -2.0732008081
H       -2.3962491899   -4.2428215020   -0.6704009214
H       -1.9585188175   -0.5058955139    1.5911115756
H       -4.2600605700   -3.1733947326   -1.8627315626
H       -3.8517297952    0.3682314350    0.3066478055
H       -1.5109866582   -2.9754140009    1.3135566040
H       -4.8901673140   -0.9867465251   -1.2964168626
24   
Generated by ForceBalance from scan.xyz: Frame 6 of 7
C        1.3741916732   -0.9585617537   -1.5361586556
C        0.0831281186   -1.0805812755   -0.9035659545
C        2.2817321967   -1.9853041432   -1.5772420052
C       -0.3421353464   -2.2286366562   -0.2832854929
C        1.8705477027   -3.2170277099   -0.9852909814
C        0.5565648414   -3.3423686271   -0.3681235570
C       -2.6240855217   -3.1913232652   -0.5162189899
C       -2.3525566802   -1.0809199647    0.7555016531
C       -3.6452841260   -2.6140833673   -1.1705378571
C       -3.3935481923   -0.5834679884    0.0650008535
C       -1.6995900824   -2.3975780856    0.3945491059
N        2.5310016576   -4.3580686484   -0.8217419926
N        0.5564216355   -4.4844683270    0.3060589849
N       -3.9672288510   -1.2608621267   -1.0131648190
O        1.5590515988   -5.2093119042   -0.3170251940
H        1.6265620901   -0.0071315332   -1.9972833082
H       -0.5779764858   -0.2184222518   -0.9089356352
H        3.2526939698   -1.8891498883   -2.0519388731
H       -2.4129674630   -4.2435312236   -0.6746016660
H       -1.9493697864   -0.5079640933    1.5848342717
H       -4.2777450779   -3.1666920815   -1.8584893464
H       -3.8452911188    0.3733063218    0.3093923449
H       -1.5156856547   -2.9802940924    1.3070187491
H       -4.8976324404   -0.9780851782   -1.2877266703
24   
Generated by ForceBalance from scan.xyz: Frame 7 of 7
C        1.3798891579   -0.9583220895   -1.5298834313
C        0.0829008688   -1.0891752688   -0.9098014587
C        2.2966544378   -1.9777993550   -1.5640184805
C       -0.3444665881   -2.2380157946   -0.2908175761
C        1.8914780236   -3.2223775677   -0.9980783108
C        0.5398540191   -3.3607643066   -0.3876848917
C       -2.6304390272   -3.1958809397   -0.5128370620
C       -2.3488338247   -1.0819304282    0.7508774293
C       -3.6523894279   -2.6185240620   -1.1658077714
C       -3.3909884626   -0.5839758766    0.0623686848
C       -1.7007330254   -2.4014378445    0.3918153881
N        2.5716203527   -4.3538415507   -0.8072656043
N        0.6322491859   -4.4517859533    0.3581321343
N       -3.9697869032   -1.2639277761   -1.0113835457
O        1.5316098871   -5.2082007859   -0.4105784381
H        1.6286411313   -0.0041221142   -1.9874347104
H       -0.5789148119   -0.2272905175   -0.9158710713
H        3.2699327203   -1.8684144262   -2.0317602163
H       -2.4231317149   -4.2494143701   -0.6678035778
H       -1.9418027934   -0.5075875309    1.5773718811
H       -4.2888160746   -3.1718086145   -1.8495176372
H       -3.8397887892    0.3745554388    0.3052693840
H       -1.5138947981   -2.9817117575    1.3052114456
H       -4.9001133068   -0.9792824676   -1.2842984076
