49

C      0.18637    0.37398    0.05778
C      2.41261   -7.65771    1.00930
C      2.41997   -6.64883    0.04837
C     -0.56321   -1.80430   -0.79981
C      1.71576   -1.54341    0.01312
C      0.44631   -1.00442   -0.25160
C      0.04392   -6.29231    0.43503
C     -0.31317   -3.14420   -1.10902
C      1.24647   -7.99885    1.70695
C      1.23938   -5.96804   -0.23188
C      0.95781   -3.68160   -0.85527
C      1.96787   -2.88146   -0.28223
C      0.06554   -7.30702    1.41377
C     -1.18324   -5.51141    0.12233
C     -1.43315   -3.99642   -1.67437
C     -0.27641   -7.92558    5.34494
C      1.88702   -6.75025    5.90781
C     -2.05562   -8.37297    1.36479
C      1.87496   -8.50221    4.10059
C      1.29253   -9.05788    2.78750
C      1.05527   -7.39794    4.79112
N     -0.01692    1.49417    0.30663
O     -1.95308   -5.02128    0.91725
O      1.29017   -4.97534   -1.21376
O     -1.30632   -5.35852   -1.24048
O      3.17536   -3.47752   -0.05578
O      2.11940  -10.12667    2.28897
O     -1.08080   -7.62482    2.10550
H      3.32369   -8.20668    1.22552
H      3.32497   -6.36276   -0.47625
H     -1.55037   -1.38427   -0.96563
H      2.49169   -0.91660    0.44559
H     -2.40172   -3.58228   -1.37970
H     -1.38210   -4.04675   -2.76460
H     -0.10269   -8.72027    6.08203
H     -0.83106   -7.12406    5.84448
H     -0.91646   -8.31851    4.55170
H      2.15366   -7.48619    6.67680
H      2.81733   -6.32266    5.51718
H      1.32696   -5.94658    6.39811
H     -2.88628   -8.54939    2.04987
H     -1.63393   -9.32924    1.03181
H     -2.41945   -7.81263    0.49737
H      2.88401   -8.13291    3.87965
H      1.99279   -9.34029    4.80517
H      0.27895   -9.43102    2.96413
H      0.83040   -6.62288    4.04812
H      3.77327   -2.83872    0.36475
H      2.25376  -10.75416    3.01682
