37

C     -0.57238    0.88837   -2.48790
C     -1.10500   -0.08874   -0.70271
C      1.13656    2.35236    2.68811
C      0.90169    1.57976    1.39226
C      0.07689    1.29449    2.61837
C      3.71681   -3.48432   -0.84765
C      2.18844   -3.31042    1.13195
C      4.21813   -1.82541    0.95518
C      1.91698    0.59025    0.86159
C      1.25560   -0.59016    0.12976
C      2.22629   -1.51198   -0.65605
C      3.08341   -2.50995    0.16908
N     -1.65516    0.51825   -1.75007
N      0.60224    0.55174   -1.95943
N      0.24159   -0.08735   -0.80846
O      3.09653   -0.74585   -1.48263
Cl     0.33754   -0.22474    3.52164
Cl    -1.63211    1.78953    2.61412
H     -0.64162    1.41293   -3.43215
H     -1.62900   -0.52155    0.13955
H      2.02411    2.11461    3.26684
H      0.80762    3.38497    2.74410
H      0.35607    2.12702    0.62877
H      4.35027   -2.94850   -1.55850
H      2.94635   -4.01975   -1.41461
H      4.32925   -4.22931   -0.32856
H      1.79951   -2.69386    1.94896
H      1.33706   -3.76359    0.60948
H      2.76358   -4.12334    1.58743
H      3.85092   -1.29002    1.83493
H      4.76399   -1.12215    0.32167
H      4.92451   -2.58101    1.31552
H      2.51704    0.19675    1.68111
H      2.60074    1.10346    0.18074
H      0.69419   -1.19024    0.84699
H      1.57074   -2.13221   -1.28805
H      2.52644   -0.18353   -2.04369
