69

C    -11.60312   -2.08901   -2.15032
C    -10.75021   -3.63083   -0.46335
C     -9.72205   -4.13414    0.33105
C     -8.20643   -2.48704   -0.60539
C    -10.51376   -2.56313   -1.34254
C     -9.22644   -1.98993   -1.40744
C     -8.45292   -3.56266    0.25083
C     -7.50384   -4.14289    2.47297
C     -6.14602   -4.49603    0.62532
C      1.75730    0.71844    0.92408
C      0.18171   -0.96268    2.00456
C     -0.12115   -0.28297   -0.31145
C      0.10009   -2.43960    1.61025
C     -0.19526   -1.73459   -0.76636
C     -6.17180   -4.69892    2.98241
C     -6.41782   -6.06435    3.64460
C     -5.52616   -3.70179    3.95284
C      4.41104    1.98962    3.48193
C      2.51378    0.85735    2.23676
C      3.66065    1.86993    2.15226
C     -3.03614   -4.29963    1.24631
C     -1.66490   -4.90738    0.91029
C     -4.07334   -5.36894    1.63090
C     -0.86236   -4.05910   -0.07436
C     -8.94435   -0.83148   -2.34092
N    -12.51038   -1.73525   -2.78788
N     -7.40203   -4.05785    1.08065
N     -5.41456   -4.82020    1.72460
N      0.67370   -0.17059    0.89827
N     -0.72651   -2.61046    0.35540
O     -8.46418   -3.83896    3.14647
O      2.05597    1.33404   -0.08846
F     -7.65492   -0.41834   -2.24006
F     -9.15527   -1.16998   -3.63042
F     -9.72671    0.23314   -2.06298
S     -5.67017   -4.61690   -0.96296
H    -11.74277   -4.06558   -0.41256
H     -9.90889   -4.95895    1.00983
H     -7.22014   -2.04520   -0.65202
H     -0.81225   -0.61046    2.32420
H      0.84009   -0.88375    2.86795
H      0.35074    0.31795   -1.09040
H     -1.13411    0.11539   -0.14669
H      1.09007   -2.84194    1.38510
H     -0.36407   -3.03484    2.39739
H     -0.86877   -1.85821   -1.61703
H      0.79261   -2.12171   -1.02437
H     -5.48908   -6.47561    4.05061
H     -6.83372   -6.77799    2.92804
H     -7.12606   -5.94138    4.46730
H     -4.57200   -4.09089    4.32276
H     -6.18764   -3.54527    4.80801
H     -5.35463   -2.73647    3.46741
H      4.85275    1.03234    3.78246
H      3.74835    2.32067    4.28978
H      5.22377    2.71726    3.40324
H      2.90868   -0.12493    2.53107
H      1.81151    1.15421    3.02715
H      3.25665    2.84177    1.85422
H      4.34536    1.56927    1.35394
H     -3.43775   -3.78684    0.36486
H     -2.96201   -3.56762    2.06131
H     -1.08694   -5.12290    1.81455
H     -1.80500   -5.87051    0.40734
H     -3.82270   -5.82666    2.59037
H     -4.07234   -6.15695    0.87106
H     -1.36888   -4.03337   -1.04203
H      0.15171   -4.43722   -0.22219
H     -1.67501   -2.27803    0.56858
