23   

C       -4.8394605105   -6.8729064810   -2.0221296241
C        1.2347304088   -4.8207311023    3.1736840498
C       -3.3355728355   -4.8946904544   -1.4716640763
C        1.0757123398   -5.3672200566    1.9398726433
C       -3.7725538723   -6.5056216454    0.1796498406
C       -4.0130486560   -6.1339504835   -1.1173623895
C       -2.5758945630   -4.3762083332   -0.4440670977
C        0.6971707771   -3.5088020506    3.4436050290
C       -0.1413513211   -3.3644597288    1.3093890011
C       -1.8558197225   -3.1092718631   -0.4969829350
C       -0.8855133087   -2.6259284124    0.3053439557
N       -5.5075035476   -7.4769043474   -2.7604435544
N        0.0167891650   -2.8104438986    2.4726123055
N        0.3830227380   -4.6182354594    0.9895636245
O        0.8351485498   -3.0208664647    4.5519492208
S       -2.7150912274   -5.3748442303    1.0131885655
H        1.7543729379   -5.3328072055    3.9710849250
H       -3.4334597274   -4.4289964389   -2.4468830971
H        1.4780168917   -6.3535091171    1.7199123019
H       -4.1867365271   -7.3928052183    0.6451357708
H       -2.1559835165   -2.4459988659   -1.3020416326
H       -0.6957957009   -1.5600806600    0.2880712232
H        0.2106399046   -4.9593096376    0.0510136422
23   

C       -4.5232495091   -7.0160963170   -1.9709508952
C        1.3106992305   -4.8953914524    3.0976394498
C       -3.1738407547   -4.9317808196   -1.4118557403
C        0.9598182028   -5.4544717068    1.9101419963
C       -3.8241701798   -6.3829783027    0.3167837511
C       -3.8679159186   -6.1551286686   -1.0345423061
C       -2.6029852662   -4.2822133003   -0.3396613593
C        0.9390117575   -3.5288516549    3.3759044651
C       -0.1127540406   -3.3523542471    1.3402626685
C       -1.8925396744   -3.0039293597   -0.3854846690
C       -0.8861604128   -2.5637883956    0.3957690864
N       -5.0509865941   -7.7195750978   -2.7342855077
N        0.2283630692   -2.7886202695    2.4588557309
N        0.2424350802   -4.6628431749    1.0147014758
O        1.2458598692   -3.0300029978    4.4448288791
S       -2.9386780663   -5.1312069677    1.1783002919
H        1.8636123484   -5.4374969761    3.8516032042
H       -3.1236319259   -4.5723836374   -2.4346217426
H        1.2343599886   -6.4822961769    1.6838284061
H       -4.2840630241   -7.2346880368    0.8052375309
H       -2.2063238148   -2.3249146020   -1.1720740922
H       -0.6711364461   -1.5024906539    0.3998587856
H       -0.0756063429   -5.0106527962    0.1172784131
23   

C       -4.2291377295   -7.1186692871   -2.0247250853
C        1.2508033553   -5.1087346122    3.0574288690
C       -3.0406647212   -4.9613266818   -1.3832767003
C        0.7230512046   -5.6367119280    1.9224907570
C       -3.9511490957   -6.3217318919    0.3016889686
C       -3.7646070252   -6.1800836058   -1.0496153522
C       -2.6858893365   -4.2274822960   -0.2751960064
C        1.0478312802   -3.7101416014    3.3499306290
C       -0.1839557549   -3.4383978146    1.4278607864
C       -1.9832621180   -2.9375394695   -0.2452337877
C       -0.9595047789   -2.5737040771    0.5508525503
N       -4.6005944950   -7.8855383138   -2.8183439936
N        0.3245034226   -2.9068984143    2.4979080728
N       -0.0005923401   -4.7816427130    1.0932515581
O        1.5133261331   -3.2379394563    4.3726854563
S       -3.2548744604   -4.9909270446    1.2172853554
H        1.8232162519   -5.6993000489    3.7585539440
H       -2.8142408202   -4.6664141425   -2.4030201888
H        0.8677642390   -6.6883877758    1.6857086044
H       -4.4714412985   -7.1555267939    0.7597340526
H       -2.2993044411   -2.2077889366   -0.9840985971
H       -0.7110598929   -1.5211995729    0.6094709791
H       -0.4473700809   -5.1010045430    0.2407919827
23   

C       -3.9344766896   -7.2300002838   -2.0035039537
C        1.2296406886   -5.2088048680    2.9804500343
C       -2.8995899590   -5.0004519707   -1.3428390895
C        0.5500877380   -5.7241684387    1.9233282380
C       -4.0444426936   -6.2645501055    0.2727608380
C       -3.6475628314   -6.2124683946   -1.0392072331
C       -2.7462589441   -4.1799471092   -0.2514413885
C        1.1646311089   -3.7910088621    3.2415260423
C       -0.2256873707   -3.4730926219    1.4371125029
C       -2.0581094473   -2.8783394278   -0.1748922471
C       -1.0065030573   -2.5665569438    0.6048532534
N       -4.1607181187   -8.0612879010   -2.7867704446
N        0.4258681371   -2.9558653574    2.4344219752
N       -0.1857676549   -4.8370675820    1.1400910319
O        1.7652877505   -3.3291370509    4.1963319101
S       -3.5257667346   -4.8535308085    1.1864938592
H        1.8237330461   -5.8235241622    3.6416056513
H       -2.5106796440   -4.7733355354   -2.3306467749
H        0.5886638630   -6.7901374596    1.7105583254
H       -4.6171182440   -7.0787019967    0.7030345483
H       -2.4054254077   -2.1092140119   -0.8577082754
H       -0.7236479411   -1.5235816735    0.6780848072
H       -0.7385041005   -5.1426487789    0.3463037026
23   

C       -3.6713884128   -7.2722874692   -1.9718563140
C        1.2151635294   -5.2215308090    2.9359364654
C       -2.7765390183   -4.9948424775   -1.2708717584
C        0.3888183206   -5.7329084472    1.9870905596
C       -4.1778905339   -6.1833892952    0.1923795555
C       -3.5603282213   -6.1986251802   -1.0324521217
C       -2.8224693223   -4.1126633279   -0.2195892088
C        1.2740133192   -3.7927224280    3.1281775140
C       -0.2797220174   -3.4547866502    1.4649243375
C       -2.1545817800   -2.8016113928   -0.0838936948
C       -1.0762537401   -2.5252193828    0.6711194538
N       -3.7548733989   -8.1495268649   -2.7328199427
N        0.5098359594   -2.9433064131    2.3606893475
N       -0.3690183702   -4.8307088047    1.2430499506
O        2.0072437940   -3.3328099321    3.9865031593
S       -3.8318753994   -4.7161138346    1.0996114681
H        1.8375306460   -5.8473431509    3.5595842013
H       -2.2197096966   -4.8174479102   -2.1860905517
H        0.3326116225   -6.8072215621    1.8266909343
H       -4.8127934062   -6.9806516501    0.5630594455
H       -2.5579135578   -1.9903911650   -0.6820224910
H       -0.7698049304   -1.4889634381    0.7465488481
H       -1.0173550406   -5.1304078992    0.5224798732
23   

C       -3.4690766003   -7.3208120892   -1.9296755087
C        1.2385782785   -5.2508998157    2.8739526005
C       -2.6725533988   -5.0250371743   -1.1718906399
C        0.2733856580   -5.7558816267    2.0627056505
C       -4.3518892269   -6.1233428761    0.0484806317
C       -3.5134991849   -6.2055584714   -1.0342359700
C       -2.8957445726   -4.0950196936   -0.1864710050
C        1.4070523206   -3.8212419680    2.9683842318
C       -0.3105397664   -3.4698116509    1.4769737037
C       -2.2448063262   -2.7825088333    0.0095313721
C       -1.1350841041   -2.5282283785    0.7258710696
N       -3.4277087932   -8.2322430319   -2.6529219613
N        0.6095788899   -2.9655711516    2.2431839777
N       -0.5131089562   -4.8463505955    1.3580794311
O        2.2661866460   -3.3655078860    3.7033379971
S       -4.1514652096   -4.6191680677    0.9393790474
H        1.8930405832   -5.8823765785    3.4577494713
H       -1.9514424917   -4.8955488005   -1.9737034184
H        0.1331759790   -6.8310789729    1.9772579032
H       -5.0635053621   -6.8933909619    0.3257287034
H       -2.7240471082   -1.9340913818   -0.4691237030
H       -0.8132441685   -1.4960662380    0.7944476202
H       -1.2540524002   -5.1412507996    0.7308981235
23   

C       -3.7541310139   -7.7370820620   -0.6879571120
C        1.0828066183   -4.9745602117    3.3243939264
C       -2.5894590470   -5.4736829018   -0.6759292652
C       -0.0762153335   -5.4522197303    2.8014063547
C       -4.7056500806   -5.6862896052    0.3193559361
C       -3.7061406366   -6.3480455512   -0.3475948323
C       -2.7725535376   -4.1859538662   -0.2321593216
C        1.6355173682   -3.7441138000    2.8132528434
C       -0.1001647607   -3.5277943609    1.3167208558
C       -1.8844894846   -3.0202834267   -0.3997262297
C       -0.7333249351   -2.7612427496    0.2483604353
N       -3.7917844972   -8.8692778054   -0.9566836210
N        1.0077549485   -3.0534070129    1.8021092192
N       -0.6752942813   -4.7108802200    1.7843167766
O        2.6723759312   -3.3099919116    3.2849218293
S       -4.3291307260   -3.9867251578    0.5772477573
H        1.6143225324   -5.4835384147    4.1158165848
H       -1.7114843575   -5.8052342028   -1.2230475814
H       -0.5064919915   -6.3793638255    3.1732415823
H       -5.6279957630   -6.1524001523    0.6483648610
H       -2.2323862890   -2.2558634304   -1.0876794598
H       -0.1993776599   -1.8613130444   -0.0323551842
H       -1.5372094879   -5.0024352944    1.3356539983
23   

C       -3.6022633069   -7.7546220732   -0.5846569246
C        1.0917238645   -5.0331884288    3.2831189813
C       -2.5249155558   -5.4493830146   -0.5191816932
C       -0.1558751433   -5.4022390535    2.8924727487
C       -4.7898157136   -5.6795346782    0.0546223126
C       -3.6603744964   -6.3442817902   -0.3499019703
C       -2.8244022789   -4.1413877275   -0.2150606391
C        1.7081488417   -3.8760574314    2.6817363833
C       -0.1388449970   -3.5204642736    1.3549103898
C       -1.9631928950   -2.9534870915   -0.3040592833
C       -0.7985019569   -2.7169289226    0.3317428923
N       -3.5561903481   -8.9037490312   -0.7661339662
N        1.0520460264   -3.1475220525    1.7163120167
N       -0.7792135130   -4.6262400846    1.9163736823
O        2.8257513274   -3.5396803559    3.0335908533
S       -4.5174010075   -3.9520915315    0.2504179892
H        1.6482335328   -5.5762461738    4.0336806982
H       -1.5490265039   -5.7813848809   -0.8625232871
H       -0.6351964201   -6.2729000629    3.3343166125
H       -5.7461142330   -6.1595704078    0.2312035855
H       -2.3509649111   -2.1359935017   -0.9040643341
H       -0.2625394510   -1.8155234989    0.0597302789
H       -1.7043903788   -4.8417085781    1.5602325499
23   

C       -3.4684957012   -7.7665263807   -0.4731544512
C        1.0846978880   -5.0784465525    3.2439244233
C       -2.4823082770   -5.4226054995   -0.3641021240
C       -0.2248835640   -5.3363954459    2.9909462750
C       -4.8080050685   -5.7024310902   -0.2111307439
C       -3.6060568104   -6.3475064194   -0.3508010831
C       -2.8655498282   -4.1085318843   -0.2097524275
C        1.7397049871   -3.9960985812    2.5508919202
C       -0.1905993896   -3.5003915276    1.4002706284
C       -2.0469325253   -2.8938293911   -0.2077348503
C       -0.8758102927   -2.6647782064    0.4223335443
N       -3.3605126449   -8.9224009422   -0.5622730745
N        1.0584831117   -3.2302373521    1.6329301906
N       -0.8712124080   -4.5250363716    2.0593826618
O        2.9133734417   -3.7591806682    2.7795094087
S       -4.6211756834   -3.9574592209   -0.0847008178
H        1.6631088698   -5.6566586889    3.9504154782
H       -1.4520046464   -5.7405470395   -0.4982991465
H       -0.7338223394   -6.1494620638    3.5037835038
H       -5.7677380935   -6.2065544972   -0.1842377041
H       -2.4662689447   -2.0462616060   -0.7410675412
H       -0.3449541808   -1.7567188435    0.1630158209
H       -1.8412642167   -4.6650011554    1.7977280227
23   

C       -3.3754975621   -7.7452531206   -0.3894084253
C        1.0739057793   -5.1360914314    3.2275982802
C       -2.4412403317   -5.3836753447   -0.2239680427
C       -0.2723180109   -5.2706442952    3.1038602732
C       -4.7521011341   -5.6922719657   -0.4968175393
C       -3.5419403145   -6.3241524757   -0.3731291161
C       -2.8520739020   -4.0671543493   -0.2180395087
C        1.7600255327   -4.1328458138    2.4503792456
C       -0.2129375251   -3.4798220803    1.4642276849
C       -2.0786683971   -2.8324699897   -0.1094899704
C       -0.9083155720   -2.6098224394    0.5268110390
N       -3.2465301642   -8.9024683996   -0.3920257771
N        1.0713596715   -3.3233851099    1.5763430862
N       -0.9244208111   -4.4166791061    2.2152651560
O        2.9667907604   -4.0052397094    2.5652345122
S       -4.6019003801   -3.9408549615   -0.4314024474
H        1.6592655468   -5.7561264814    3.8916791672
H       -1.4040764992   -5.6977544919   -0.1480367848
H       -0.8047351568   -6.0224551497    3.6822232737
H       -5.6967196973   -6.2094684071   -0.6230994454
H       -2.5167067652   -1.9643456570   -0.5922952838
H       -0.3787224846   -1.6955879225    0.2880212867
H       -1.9227809547   -4.4704100849    2.0452058417
23   

C       -3.3553979767   -7.7594186406   -0.2890131746
C        1.1117623793   -5.1252402551    3.1653871668
C       -2.4615479542   -5.3848054074   -0.0935134659
C       -0.2457479389   -5.1815459909    3.1770890112
C       -4.6910583015   -5.7275295402   -0.7428144376
C       -3.5209116066   -6.3410058141   -0.3796810754
C       -2.8626177378   -4.0713657039   -0.2335140624
C        1.7749024355   -4.1828112866    2.2971641273
C       -0.2440014339   -3.4431160214    1.4822083820
C       -2.1511503952   -2.8123542944   -0.0390065839
C       -0.9804318030   -2.5647851851    0.5881849028
N       -3.2286694861   -8.9138728663   -0.2047146191
N        1.0514459558   -3.3577531822    1.4670347502
N       -0.9325709824   -4.3119442842    2.3304743614
O        2.9922630273   -4.1221081997    2.2944779566
S       -4.5518201851   -3.9746426949   -0.7472381618
H        1.7231887713   -5.7633960493    3.7875489421
H       -1.4560142922   -5.6950120795    0.1730841076
H       -0.7603954451   -5.8859206936    3.8268936696
H       -5.6006226038   -6.2585175973   -1.0002776668
H       -2.6229816478   -1.9418890543   -0.4842503814
H       -0.4781069199   -1.6328148987    0.3599906612
H       -1.9443931851   -4.3044419275    2.2664134645
23   

C       -4.2481260659   -7.2416915376    1.0215333084
C        1.1292535445   -4.9929074769    3.1394565571
C       -2.8716326808   -5.1600315869    0.5250979608
C        0.8215493158   -5.5729214517    1.9497470932
C       -4.6220745861   -5.7571328701   -0.9207061160
C       -3.9436650405   -6.0962153788    0.2198162468
C       -2.7604361569   -4.1385743421   -0.3980093149
C        0.8120638129   -3.6016054725    3.3538560054
C       -0.1227703629   -3.4462112851    1.2599271287
C       -1.8372076573   -3.0165727477   -0.5262728872
C       -0.7948012423   -2.6493256930    0.2501564303
N       -4.4903715681   -8.1817710705    1.6647025092
N        0.1812047959   -2.8632848743    2.3791832801
N        0.1988447649   -4.7772696280    0.9882706962
O        1.1024098167   -3.0758955965    4.4144722109
S       -3.9857459544   -4.2969279182   -1.6640933097
H        1.6100800239   -5.5356197038    3.9410251618
H       -2.2605976257   -5.2635946996    1.4145447809
H        1.0574761228   -6.6199392336    1.7725716346
H       -5.4568188721   -6.3209687853   -1.3214984663
H       -2.0578915532   -2.3307017346   -1.3382803692
H       -0.4642405228   -1.6196965619    0.1946514205
H       -0.0667779304   -5.1356383491    0.0781109799
23   

C       -4.3451904731   -7.2069795791    1.0164142160
C        1.1405434375   -5.1468787570    3.1486175048
C       -2.9887915372   -5.0920913774    0.6121712844
C        0.6661818652   -5.7006931023    2.0021317696
C       -4.4345752840   -5.8724188528   -1.0643282897
C       -3.9517317905   -6.1016159616    0.1973463854
C       -2.7571932226   -4.1329223614   -0.3532039301
C        0.9671455352   -3.7329623350    3.3776989797
C       -0.1510119995   -3.5001622037    1.3819787589
C       -1.8789630934   -2.9677805115   -0.3733213505
C       -0.8476421005   -2.6432061208    0.4367715884
N       -4.6590732644   -8.1146813587    1.6748098273
N        0.3098470835   -2.9447493395    2.4612570035
N        0.0234833303   -4.8556661264    1.0979240796
O        1.4029506687   -3.2320479378    4.3998639275
S       -3.7386680681   -4.4315125093   -1.7934034548
H        1.6496752108   -5.7275575706    3.9047705247
H       -2.5324836659   -5.0951197387    1.5971450403
H        0.7900687761   -6.7649567356    1.8143992871
H       -5.1636248825   -6.5039250981   -1.5595351764
H       -2.0998843223   -2.2368308998   -1.1449975080
H       -0.5279533151   -1.6084926492    0.4490029414
H       -0.3741281936   -5.1938115574    0.2287210790
23   

C       -4.4305941164   -7.1529933707    1.0102610328
C        1.1752747993   -5.1973266261    3.1117358016
C       -3.0935323135   -5.0179580772    0.6481615753
C        0.5607058052   -5.7427066532    2.0297959153
C       -4.2294103981   -5.9874323007   -1.1628344703
C       -3.9456967600   -6.0982307676    0.1736939140
C       -2.7394096104   -4.1317516525   -0.3474070289
C        1.1099272287   -3.7711873073    3.3195654663
C       -0.1702439784   -3.5063937978    1.4267978543
C       -1.9239268504   -2.9207490960   -0.2930981808
C       -0.8934295161   -2.6200102662    0.5264911410
N       -4.8184698224   -8.0195147056    1.6844118609
N        0.4213891416   -2.9609963272    2.4460985080
N       -0.1112991979   -4.8766476614    1.1681463311
O        1.6669515213   -3.2786715844    4.2854377943
S       -3.4717807041   -4.5776437310   -1.8927696422
H        1.7175543968   -5.7938576490    3.8315807624
H       -2.7918274989   -4.9183856187    1.6869977104
H        0.5999503835   -6.8162122098    1.8588041569
H       -4.8515604262   -6.6860138546   -1.7111568597
H       -2.1675656350   -2.1615468171   -1.0298949895
H       -0.5799699353   -1.5841378655    0.5714877896
H       -0.6177060325   -5.2066101865    0.3537716712
23   

C       -4.5608125459   -7.1285756504    0.9419711144
C        1.2274114659   -5.2078926608    3.0981380528
C       -3.2334060344   -4.9750175438    0.6618855109
C        0.4572859561   -5.7571539193    2.1230657342
C       -4.0117610937   -6.1047400171   -1.2429355038
C       -3.9624413085   -6.1157161340    0.1273670025
C       -2.7324729784   -4.1487683126   -0.3200279454
C        1.2730045073   -3.7731289881    3.2401520426
C       -0.1955065299   -3.5046194580    1.4888227921
C       -1.9857242357   -2.8952032933   -0.1915814842
C       -0.9538577988   -2.6053614509    0.6283814100
N       -5.0405624126   -7.9602394636    1.6006234064
N        0.5407731358   -2.9574018377    2.4084842460
N       -0.2569811821   -4.8861611320    1.3014421132
O        1.9672725423   -3.2772543751    4.1107817262
S       -3.1736715682   -4.7198328264   -1.9324728343
H        1.8139241860   -5.8073747450    3.7797851253
H       -3.1142322132   -4.7911571198    1.7261302781
H        0.4105369259   -6.8371769100    2.0028078816
H       -4.5122617569   -6.8604478245   -1.8382140001
H       -2.2654324011   -2.1109571214   -0.8882754506
H       -0.6477751567   -1.5679297890    0.6890522527
H       -0.8712072622   -5.2157518784    0.5644480414
23   

C       -4.6771277909   -7.1515793310    0.8450581938
C        1.2674569622   -5.1200392038    3.0655418329
C       -3.4030798713   -4.9573501548    0.6419725328
C        0.3686725159   -5.6886536735    2.2204583420
C       -3.7597189207   -6.2644717371   -1.2754106278
C       -3.9724580776   -6.1717211882    0.0763819470
C       -2.7580089119   -4.1824417872   -0.2941928628
C        1.3853043178   -3.6831458030    3.1107470862
C       -0.2590809372   -3.4488228376    1.5171982330
C       -2.1036579184   -2.8780463272   -0.1179319999
C       -1.0712571609   -2.5638417472    0.6896178942
N       -5.2432051698   -7.9551859808    1.4690137445
N        0.5965585310   -2.8841466003    2.3152837838
N       -0.4003206429   -4.8347202208    1.4311946343
O        2.1945370829   -3.1701530241    3.8643829162
S       -2.8594082480   -4.8913921692   -1.9084387532
H        1.9048859887   -5.7054008493    3.7128385089
H       -3.4918743747   -4.6885647692    1.6909441232
H        0.2655254585   -6.7704437195    2.1744369605
H       -4.1086182986   -7.0873345361   -1.8896489767
H       -2.4519622837   -2.0854988641   -0.7730817948
H       -0.7916355292   -1.5187898087    0.7484217263
H       -1.1026173439   -5.1781505257    0.7846240204
23   

C       -4.8021148077   -7.1376769269    0.7149429083
C        1.3288701190   -5.0774977049    3.0190685488
C       -3.5629973988   -4.9164579333    0.6134062142
C        0.3068878013   -5.6373188778    2.3210904451
C       -3.4962095302   -6.3591855592   -1.2381059267
C       -3.9791156942   -6.1855042370    0.0340530325
C       -2.7661642862   -4.1809535933   -0.2308747392
C        1.5272629743   -3.6499344423    2.9604472817
C       -0.2776437197   -3.4066474146    1.5525616949
C       -2.1811597213   -2.8446548457   -0.0123259082
C       -1.1349829466   -2.5214048686    0.7707805541
N       -5.4649328143   -7.9174181355    1.2700777028
N        0.6932302157   -2.8504196383    2.2129788648
N       -0.5037403785   -4.7841515480    1.5741228597
O        2.4475431497   -3.1456071352    3.5807289606
S       -2.5189638864   -4.9982956607   -1.7763932325
H        2.0068370835   -5.6631613458    3.6234493906
H       -3.8617154262   -4.5850158854    1.6038692319
H        0.1412221211   -6.7117456790    2.3550750062
H       -3.6955231314   -7.2327192857   -1.8492031465
H       -2.6128222412   -2.0379935821   -0.5968039982
H       -0.8657870142   -1.4735696600    0.8286710958
H       -1.2918089079   -5.1212767834    1.0314493847
23   

C       -4.9085747507   -7.1296486675    0.5620931948
C        1.3786682595   -5.0749539404    2.9588647685
C       -3.7145291590   -4.8816015735    0.5658232904
C        0.2453241666   -5.6025318237    2.4279123666
C       -3.2479440196   -6.4319945041   -1.1355192607
C       -3.9824602914   -6.1955522359   -0.0012453894
C       -2.7823596848   -4.1728936296   -0.1513889512
C        1.6570755641   -3.6708139917    2.7796480842
C       -0.2880153504   -3.3865394821    1.5822653463
C       -2.2549737479   -2.8167435636    0.1081130942
C       -1.1828331683   -2.4930368062    0.8531899286
N       -5.6556748784   -7.8935817031    1.0244240301
N        0.7878593281   -2.8602535450    2.0857233591
N       -0.5961222576   -4.7408918567    1.7265905696
O        2.6782029552   -3.1970574849    3.2474249716
S       -2.2062993873   -5.0771358494   -1.5547692132
H        2.0881171996   -5.6696288601    3.5164923655
H       -4.2063242730   -4.5043031827    1.4577088909
H        0.0178310689   -6.6585478158    2.5547502047
H       -3.3028903013   -7.3469815703   -1.7151902557
H       -2.7872422880   -1.9976616742   -0.3655859932
H       -0.9125712375   -1.4453178208    0.9069133340
H       -1.4618896284   -5.0549010638    1.3009567881
23   

C       -5.0120324070   -7.1111444857    0.3759738951
C        1.4319680253   -5.0596305773    2.9119923036
C       -3.8395716203   -4.8549817108    0.4941284008
C        0.2158605852   -5.5478326465    2.5550568811
C       -3.0578028690   -6.4835601775   -1.0072422556
C       -3.9952196563   -6.1976704242   -0.0473727283
C       -2.7893796781   -4.1723635583   -0.0686024057
C        1.7649445263   -3.6908723421    2.5996856621
C       -0.2875313369   -3.3645750564    1.6119540469
C       -2.3132658330   -2.8046981986    0.2249111366
C       -1.2142037863   -2.4712279298    0.9249885105
N       -5.8342127198   -7.8572979322    0.7264857341
N        0.8664398192   -2.8741680577    1.9514618045
N       -0.6536543916   -4.6824228602    1.8940809906
O        2.8598986267   -3.2542616739    2.9100346037
S       -1.9545478447   -5.1419717940   -1.2877185925
H        2.1685658565   -5.6604166246    3.4261892443
H       -4.4900092602   -4.4414554190    1.2590348230
H       -0.0534016481   -6.5765267941    2.7837959354
H       -3.0012041600   -7.4265106709   -1.5399467053
H       -2.9345677037   -1.9900010602   -0.1339282363
H       -0.9426571867   -1.4232159069    0.9618901571
H       -1.5760362012   -4.9705126755    1.5848925219
23   

C       -5.8349215814   -6.1548221003    0.4978778547
C        0.9829635940   -5.0683659438    3.3132637940
C       -4.0805507456   -4.3326850754    0.2144114976
C       -0.3533660039   -5.2120237767    3.1170906956
C       -3.5489316400   -6.5460493079   -0.3662750116
C       -4.5257957796   -5.7161076537    0.1220080098
C       -2.7808332314   -4.1613058387   -0.1969907950
C        1.7142766273   -4.1017698438    2.5300622528
C       -0.1992230306   -3.4882446064    1.4111000511
C       -1.9946726664   -2.9152065596   -0.2496634384
C       -0.8463385153   -2.6578933702    0.4031810305
N       -6.8977359445   -6.5124047379    0.8113916987
N        1.0766292712   -3.3243465514    1.5900245816
N       -0.9500689731   -4.4041860652    2.1510494085
O        2.9154347823   -3.9797582646    2.6976945145
S       -2.0576178916   -5.6857794524   -0.7279766673
H        1.5273797678   -5.6545949224    4.0398303274
H       -4.7152544597   -3.5259696325    0.5679064072
H       -0.9209422767   -5.9345525385    3.6992061640
H       -3.6767698134   -7.6120798816   -0.5184994351
H       -2.4159252679   -2.1045336895   -0.8359872884
H       -0.2978409688   -1.7654345841    0.1277993878
H       -1.9376925122   -4.4636934680    1.9273211737
23   

C       -5.8964288989   -6.1723348477    0.1927433984
C        1.1136120483   -5.0191821999    3.2643912862
C       -4.1349359169   -4.3387818612    0.0778744917
C       -0.2426038184   -5.0804225416    3.2164839344
C       -3.4977201065   -6.5737355990   -0.2652170794
C       -4.5473918143   -5.7335508335    0.0052859673
C       -2.7846445017   -4.1673659525   -0.1217583624
C        1.8155248915   -4.1326455394    2.3676266826
C       -0.1643964993   -3.4417137380    1.4252742352
C       -2.0392274859   -2.9018557203   -0.1500222404
C       -0.8660428283   -2.6210437912    0.4493075904
N       -6.9932182099   -6.5293243854    0.3524651027
N        1.1304989443   -3.3532937157    1.4633641553
N       -0.8888523731   -4.2712338901    2.2837349161
O        3.0328905830   -4.0838392125    2.4040412500
S       -1.9750383713   -5.7098936077   -0.4367437910
H        1.6956471547   -5.6134958124    3.9543382233
H       -4.8278974450   -3.5243808519    0.2640867247
H       -0.7876513671   -5.7417758974    3.8862338956
H       -3.5901938101   -7.6493057380   -0.3668150030
H       -2.5144936927   -2.0831616559   -0.6812500560
H       -0.3396593830   -1.7262002063    0.1409164033
H       -1.8961152154   -4.2749310226    2.1666880080
23   

C       -5.9315244295   -6.2210755666   -0.1145122615
C        1.2331271882   -4.8326796703    3.1946450148
C       -4.2153092511   -4.3427267752   -0.0492620077
C       -0.1191371892   -4.8257522145    3.3257064169
C       -3.4821690138   -6.5728319762   -0.1269503879
C       -4.5798332687   -5.7518067477   -0.0969615510
C       -2.8534702361   -4.1378474805   -0.0185599096
C        1.8505064916   -4.0295649485    2.1666066533
C       -0.2030482605   -3.2909529925    1.4465127993
C       -2.1759453275   -2.8410428053   -0.0274044152
C       -0.9928834490   -2.4976805937    0.5197457641
N       -7.0317699040   -6.6024780709   -0.1223965422
N        1.0881232000   -3.2642360380    1.3139748494
N       -0.8461999910   -4.0329931794    2.4391138193
O        3.0630050437   -4.0427090570    2.0429963416
S       -1.9717764333   -5.6724185622   -0.0928561815
H        1.8737151172   -5.4211644641    3.8360385127
H       -4.9484482274   -3.5425806826   -0.0464949310
H       -0.5998975799   -5.4233784447    4.0968913949
H       -3.5329713858   -7.6549886071   -0.1699933227
H       -2.7116723984   -2.0394410024   -0.5260753885
H       -0.5231131956   -1.5815532600    0.1841439546
H       -1.8587386363   -3.9886367900    2.4559621888
23   

C       -5.9311271159   -6.2364316982   -0.4629434248
C        1.3106592417   -4.8551435372    3.1870271712
C       -4.2299689834   -4.3649982741   -0.1762789131
C       -0.0107115074   -4.7275587349    3.4767043315
C       -3.5326247924   -6.5979619293    0.0238690414
C       -4.6013865290   -5.7725655392   -0.2095098674
C       -2.8970837661   -4.1595119234    0.1108217185
C        1.8569135945   -4.1634239429    2.0441051630
C       -0.2073542583   -3.2991464909    1.5246651518
C       -2.2385632864   -2.8584407586    0.1328959242
C       -1.0451988291   -2.5009424778    0.6484871620
N       -7.0145652290   -6.6133624749   -0.6636906970
N        1.0560468719   -3.3856591686    1.2395792584
N       -0.7791494312   -3.9264962512    2.6331496090
O        3.0404685923   -4.2847349491    1.7795148079
S       -2.0447692959   -5.7020945538    0.2977291429
H        1.9784446988   -5.4596040948    3.7843480247
H       -4.9377684995   -3.5654740903   -0.3692893837
H       -0.4366736464   -5.2399001177    4.3363986364
H       -3.5909604857   -7.6804283718    0.0364579158
H       -2.7889505738   -2.0570953526   -0.3498412742
H       -0.5990788468   -1.5757937796    0.3059950477
H       -1.7740400722   -3.7922226055    2.7711653976
23   

C       -5.0518846918   -6.7219396578   -1.8893299043
C        1.3106813797   -4.8219124277    3.2612668650
C       -3.3874579789   -4.8600859352   -1.3969714360
C        1.2960647969   -5.3364647369    2.0037608098
C       -3.6037315615   -6.6426134278    0.1142905502
C       -4.0478819778   -6.1156746119   -1.0695373017
C       -2.4381355974   -4.4809708586   -0.4702372340
C        0.6446946904   -3.5685736930    3.5233372636
C       -0.0384387755   -3.4234858365    1.3347346492
C       -1.7053181007   -3.2237986619   -0.5244066598
C       -0.7606210701   -2.7164126152    0.2939963317
N       -5.8655847931   -7.2179282202   -2.5587939685
N       -0.0190736349   -2.8983239770    2.5215857894
N        0.6192379504   -4.6144812824    1.0214630574
O        0.6605336564   -3.1057737665    4.6507508834
S       -2.3687002436   -5.6430413096    0.8661837400
H        1.8082700830   -5.3164008742    4.0834670454
H       -3.6357659790   -4.2808886841   -2.2802917230
H        1.7967522799   -6.2780551345    1.7899201180
H       -3.9709096035   -7.5673152876    0.5447466280
H       -2.0033806044   -2.5615157849   -1.3310083635
H       -0.5854516140   -1.6484575561    0.2645359529
H        0.5581867618   -4.9320144340    0.0612542469
