35

C      3.67835    0.13093   -3.08494
C      5.00583    0.47191   -3.36940
C      3.54405    1.97012   -1.53615
C      2.93215    0.87948   -2.17415
C      5.60860    1.57669   -2.75396
C      4.86189    2.32880   -1.80747
C      9.01756    1.98957   -4.04210
C      0.62389    1.57967   -4.11846
C      6.54343    3.28934   -0.38924
C      1.47642    0.56867   -1.90598
C      7.67114    1.29401   -3.96645
C      0.56927    1.59602   -2.59815
N     -0.88715    1.31666   -2.16415
O      5.35506    3.44489   -1.19405
O      6.87060    2.00450   -3.00089
H      3.23681   -0.72903   -3.58308
H      5.55968   -0.12440   -4.08452
H      3.01241    2.57004   -0.80013
H      8.89802    3.03292   -4.34615
H      9.52415    1.96289   -3.07337
H      9.65203    1.48451   -4.77662
H      0.37150    0.59096   -4.51796
H     -0.04043    2.32780   -4.56298
H      1.64413    1.81107   -4.42915
H      6.66641    4.23844    0.13356
H      7.41718    3.08580   -1.00960
H      6.40288    2.48362    0.34028
H      1.28062    0.58177   -0.82485
H      1.23306   -0.43635   -2.27209
H      7.78203    0.25047   -3.64697
H      7.16140    1.31126   -4.93778
H      0.77836    2.59815   -2.21540
H     -0.98356    1.33344   -1.14127
H     -1.18776    0.38824   -2.48617
H     -1.54133    2.00533   -2.55578
