14   

C       -0.3065418241    0.8554452383   -2.0520908610
C       -0.4546071975   -0.1050800792   -0.9694483587
C       -1.0805968766    0.5379220036   -3.1382620976
C       -1.3506898695   -1.1149877132   -1.2687436784
C       -1.7304182729   -2.2922533309   -0.4666153984
C       -1.3075250812   -2.3876740699    0.9916122787
O       -2.3294401386   -3.2374974564   -0.9720184232
S       -2.0200037017   -0.9296850991   -2.8906921472
H        0.3465368531    1.7205703001   -2.0057612218
H        0.0920380518   -0.0322575495   -0.0351020201
H       -1.1170693897    1.1170168819   -4.0534648489
H       -1.7454323552   -1.5604190742    1.5561698344
H       -0.2181807131   -2.3424594260    1.0665301001
H       -1.6537865087   -3.3325634753    1.4199498948
14   

C       -0.2946146264    0.8543353778   -2.0632367050
C       -0.3905704092   -0.1379795954   -1.0036018180
C       -1.1700097113    0.6058752005   -3.0889429031
C       -1.3587959404   -1.0927946966   -1.2525436759
C       -1.6833273090   -2.3078098064   -0.4759223624
C       -1.3076735036   -2.3896238695    0.9961750696
O       -2.1351530253   -3.3085596990   -1.0232198911
S       -2.1483104081   -0.8300433300   -2.8075576169
H        0.3984979732    1.6888567733   -2.0469810695
H        0.2475000304   -0.1298686776   -0.1262533327
H       -1.2565901937    1.2162463749   -3.9801346549
H       -1.8727267900   -1.6425997768    1.5597353992
H       -0.2379119855   -2.2061644792    1.1215346502
H       -1.5443505231   -3.3831303015    1.3874689693
14   

C       -0.2472500834    0.8028544701   -2.0890824776
C       -0.3015569375   -0.2145016959   -1.0503401806
C       -1.2328573845    0.6398536545   -3.0285810662
C       -1.3545341552   -1.0924862340   -1.2209316686
C       -1.6491226625   -2.3311886240   -0.4580830067
C       -1.3278700657   -2.4003524246    1.0281803393
O       -1.9728501424   -3.3657276587   -1.0291846102
S       -2.2696669748   -0.7407641352   -2.6857324429
H        0.4977547362    1.5908389522   -2.1228164400
H        0.4284739110   -0.2814418167   -0.2508321026
H       -1.3654325820    1.2803265606   -3.8925753261
H       -2.0969436392   -1.8640204180    1.5901478570
H       -0.3540911067   -1.9502026942    1.2323120835
H       -1.3089757796   -3.4428386019    1.3582059055
14   

C       -0.2100581452    0.7893804106   -2.1149994135
C       -0.2200324475   -0.2596222585   -1.1067707268
C       -1.2786483804    0.6981936527   -2.9701733936
C       -1.3235462433   -1.0812301735   -1.2088630145
C       -1.5776250923   -2.3475233285   -0.4612913751
C       -1.3629724422   -2.3849655469    1.0448145678
O       -1.7322831720   -3.4089119416   -1.0488497906
S       -2.3422045111   -0.6494009603   -2.5794849630
H        0.5642091512    1.5456140685   -2.1904713659
H        0.5749159568   -0.3935491758   -0.3806580762
H       -1.4554125414    1.3714437355   -3.8006888660
H       -2.2712231043   -2.0418185633    1.5470163461
H       -0.5321628778   -1.7361101789    1.3307284674
H       -1.1418485199   -3.4064206129    1.3665782016
14   

C       -0.6219401298    0.8800546487   -2.0639342617
C       -1.1450669118   -0.0649323251   -1.0889284289
C       -0.4755852444    0.3165193375   -3.3061678430
C       -1.4151212492   -1.2964541590   -1.6403818861
C       -1.8168223781   -2.5434715178   -0.9060892980
C       -3.1130386299   -2.5508041185   -0.1111177053
O       -1.0245455112   -3.4563687255   -0.7369375789
S       -0.9754481356   -1.3714154858   -3.3435786566
H       -0.3631516253    1.9071574090   -1.8291029934
H       -1.2771956164    0.1702088672   -0.0378255408
H       -0.0907774065    0.8407871998   -4.1729719802
H       -3.9398219380   -2.8261300514   -0.7710033022
H       -3.3060754640   -1.5595497499    0.3062206531
H       -3.0494895060   -3.2758785744    0.7049036346
14   

C       -0.4983586004    0.8467284530   -2.0643722640
C       -0.9173150948   -0.0855629361   -1.0284651517
C       -0.5621045878    0.2927324758   -3.3180270550
C       -1.2879360180   -1.3051362919   -1.5376537288
C       -1.7648391147   -2.5112642233   -0.7692471844
C       -3.2429103597   -2.6513960915   -0.4462143824
O       -0.9797236160   -3.3504274001   -0.3625347335
S       -1.1304492847   -1.3735894250   -3.2894570254
H       -0.1687174757    1.8608435493   -1.8643969067
H       -0.9267173650    0.1539079892    0.0300369518
H       -0.2907167675    0.8124329502   -4.2294039952
H       -3.8078221658   -2.7936923678   -1.3710002189
H       -3.5978313550   -1.7472770840    0.0549521217
H       -3.4046894186   -3.5117202234    0.2092592027
14   

C       -0.4076486747    0.8153501312   -2.0198481748
C       -0.7440421611   -0.0978614223   -0.9381253719
C       -0.6851207380    0.2832451202   -3.2532392465
C       -1.2369854488   -1.2979385216   -1.3913625990
C       -1.7865034570   -2.4130662445   -0.5485148739
C       -3.2534178452   -2.7944072681   -0.6762893123
O       -1.0475526772   -3.1403789562    0.0954182174
S       -1.3539669181   -1.3418513029   -3.1490884241
H        0.0114388629    1.8039469105   -1.8644081235
H       -0.6261350145    0.1430807903    0.1137090785
H       -0.5117781105    0.7962051141   -4.1919720401
H       -3.5480461714   -2.8230496444   -1.7279260751
H       -3.8664028347   -2.0557167083   -0.1534178059
H       -3.4253087747   -3.7787306295   -0.2319382168
14   

C       -0.3297919736    0.7853784752   -2.0242358552
C       -0.6382617849   -0.1261216702   -0.9330614708
C       -0.7584377480    0.3075160707   -3.2360617804
C       -1.2578311543   -1.2794122889   -1.3598061234
C       -1.8276026026   -2.3393563969   -0.4745410517
C       -3.2384270563   -2.8552835225   -0.7184025232
O       -1.1176405569   -2.9397640343    0.3196301895
S       -1.5395930814   -1.2641396661   -3.1005008793
H        0.1764274398    1.7354642221   -1.8893311451
H       -0.4155802509    0.0813282911    0.1091217397
H       -0.6319416129    0.8301550588   -4.1769368927
H       -3.3779081759   -3.1048173996   -1.7726689038
H       -3.9603614177   -2.0861501523   -0.4316942769
H       -3.4179385159   -3.7511272517   -0.1173128421
14   

C       -0.2647010626    0.7737388633   -2.0497159019
C       -0.5570472603   -0.1356684096   -0.9524829017
C       -0.8238301624    0.3581741533   -3.2309975731
C       -1.3000820959   -1.2283284570   -1.3470606837
C       -1.8651163358   -2.2571847922   -0.4338124941
C       -3.2149374804   -2.8929964994   -0.7337063510
O       -1.1824790589   -2.7286443510    0.4671185346
S       -1.7145037975   -1.1506403087   -3.0597689522
H        0.3240026557    1.6784257475   -1.9398272260
H       -0.2362347153    0.0278428988    0.0719939931
H       -0.7307530270    0.8911811044   -4.1699501375
H       -3.2312975726   -3.2895776767   -1.7515548481
H       -4.0030426657   -2.1434540112   -0.6237662294
H       -3.4053026908   -3.7116391708   -0.0339047974
14   

C       -0.2137574435    0.7509424156   -2.0810933834
C       -0.5107853899   -0.1501515131   -0.9782809578
C       -0.8788733666    0.4034069946   -3.2290950093
C       -1.3729220135   -1.1669913658   -1.3360935539
C       -1.9360842633   -2.1781790101   -0.4091852739
C       -3.2262288661   -2.9092161184   -0.7516566261
O       -1.3019172712   -2.5312447509    0.5789154469
S       -1.8816470869   -1.0284045068   -3.0194649493
H        0.4548297518    1.6013748628   -1.9983682589
H       -0.1073201479   -0.0367779974    0.0236814210
H       -0.8003303331    0.9431406904   -4.1655234528
H       -3.1513082737   -3.3661765349   -1.7413496564
H       -4.0607705180   -2.2032660676   -0.7391284606
H       -3.4160559055   -3.6949997311   -0.0150053961
14   

C       -0.1762593308    0.7332293804   -2.1015453797
C       -0.4698753351   -0.1626618289   -0.9935717124
C       -0.9431258752    0.4622517215   -3.2060017331
C       -1.4424016995   -1.0931795458   -1.3023089839
C       -1.9927736353   -2.1044403436   -0.3714735702
C       -3.2306189214   -2.9085831184   -0.7412622298
O       -1.4132207524   -2.3549658378    0.6803912698
S       -2.0445311622   -0.8868225988   -2.9474877958
H        0.5642079519    1.5247328359   -2.0534984245
H        0.0166160559   -0.1090447770   -0.0239214984
H       -0.8834508226    1.0116447994   -4.1381938526
H       -3.0722464822   -3.4250570819   -1.6912817728
H       -4.0907967053   -2.2398099544   -0.8292166415
H       -3.4374014668   -3.6518370569    0.0339551156
14   

C       -0.1398065810    0.6900776170   -2.1089646781
C       -0.4399870213   -0.2006549647   -0.9985703237
C       -0.9905633629    0.5043687076   -3.1687925302
C       -1.5113528857   -1.0332458531   -1.2567245076
C       -2.0595452104   -2.0468075813   -0.3281696986
C       -3.2471366966   -2.9084359389   -0.7313762968
O       -1.5579644205   -2.2042578899    0.7805844471
S       -2.1843064903   -0.7532483599   -2.8630563079
H        0.6659967851    1.4164067459   -2.0948131009
H        0.1140035926   -0.2147923922   -0.0643690066
H       -0.9405861449    1.0649884119   -4.0948498212
H       -3.0058455690   -3.4743285134   -1.6348291073
H       -4.1173844622   -2.2745639969   -0.9200968319
H       -3.4878394508   -3.6106359589    0.0718239664
14   

C       -0.1157399299    0.6562635090   -2.1057690891
C       -0.4080271488   -0.2373615760   -0.9956183574
C       -1.0562116097    0.5735422726   -3.1007479756
C       -1.5708550505   -0.9584949081   -1.1821617379
C       -2.1055814874   -1.9836147615   -0.2573902270
C       -3.2543445613   -2.8878344064   -0.6798489441
O       -1.6743232407   -2.0663163370    0.8881755346
S       -2.3297514926   -0.5842793575   -2.7300224182
H        0.7497209902    1.3097013416   -2.1385483457
H        0.2182721674   -0.3350501663   -0.1135876829
H       -1.0268590633    1.1532991961   -4.0158412946
H       -2.9306771510   -3.5344017841   -1.4996613142
H       -4.1060049318   -2.2854363303   -1.0056131345
H       -3.5660431624   -3.5122485921    0.1622294183
14   

C       -0.0996298085    0.6145465993   -2.1190381525
C       -0.3999016519   -0.2788660712   -1.0108762343
C       -1.1011112675    0.6345096609   -3.0558674697
C       -1.6328272759   -0.8873203105   -1.1334554190
C       -2.1730206403   -1.9205873837   -0.2173056566
C       -3.2577898759   -2.8800509663   -0.6852782474
O       -1.8476585908   -1.9289745745    0.9647551831
S       -2.4445338955   -0.4199812042   -2.6283211403
H        0.8150984733    1.1932386125   -2.1930369117
H        0.2723407053   -0.4587692221   -0.1770355113
H       -1.0772194322    1.2311280416   -3.9602212840
H       -2.8484620803   -3.5525445331   -1.4436882868
H       -4.0987183354   -2.3246589433   -1.1074905691
H       -3.6180355149   -3.4753114614    0.1585410991
14   

C       -0.0774863957    0.5527855365   -2.1178010575
C       -0.3906852830   -0.3332301495   -1.0072601032
C       -1.1242379944    0.6746536979   -2.9954095164
C       -1.6771755629   -0.8264753962   -1.0631013315
C       -2.2433077816   -1.8538892055   -0.1488016513
C       -3.2382222802   -2.8812379964   -0.6692750699
O       -2.0537401969   -1.7811944517    1.0589874196
S       -2.5268026892   -0.2694956488   -2.5049958128
H        0.8778608940    1.0531296060   -2.2364314884
H        0.3122388610   -0.5907481689   -0.2206279319
H       -1.1004111594    1.2837221594   -3.8914336396
H       -2.7336903829   -3.5569562937   -1.3648785565
H       -4.0652645980   -2.3845418580   -1.1819724053
H       -3.6403043076   -3.4659593685    0.1629306466
14   

C       -0.0683469140    0.4832954879   -2.1269848946
C       -0.3906636079   -0.4092954432   -1.0242410757
C       -1.1523771918    0.7269994991   -2.9307939417
C       -1.7159660733   -0.7826698754   -1.0095420520
C       -2.3234443515   -1.7980050239   -0.0974803990
C       -3.2064670075   -2.8988721996   -0.6670429600
O       -2.2862138867   -1.6511708156    1.1159005964
S       -2.6009098613   -0.1053960355   -2.3762099074
H        0.9189032362    0.9012963946   -2.2935160452
H        0.3351752132   -0.7554830421   -0.2948023484
H       -1.1300027803    1.3618237354   -3.8088009457
H       -2.5872705804   -3.6120821042   -1.2173924313
H       -3.9561524235   -2.4779977115   -1.3408730122
H       -3.7173027188   -3.4254845376    0.1440039114
14   

C       -0.0589788378    0.4168979563   -2.1765494878
C       -0.3938758657   -0.4943642497   -1.0927200614
C       -1.1638043473    0.7964161103   -2.8953754547
C       -1.7418161475   -0.7495755374   -1.0120213468
C       -2.4115914334   -1.7288531260   -0.0910236035
C       -3.1377370564   -2.9302512201   -0.6766125082
O       -2.5471705920   -1.4862142054    1.0974299167
S       -2.6463464016    0.0722907916   -2.2814888604
H        0.9503125153    0.7527543295   -2.3902105998
H        0.3403665262   -0.9321334272   -0.4237226142
H       -1.1375784416    1.4690758015   -3.7446315928
H       -2.4050854828   -3.6764250937   -0.9948162674
H       -3.7374451256   -2.6282511262   -1.5384229305
H       -3.7951004569   -3.3747549536    0.0758378414
14   

C       -0.6052819251    1.0091775880   -2.0888250737
C       -1.1464987589    0.3438660674   -0.9131341308
C       -0.5010001710    0.1617974053   -3.1629390699
C       -1.4240385114   -0.9810423145   -1.1402192483
C       -2.0007126556   -1.9753138371   -0.1647514271
C       -1.0666036434   -2.7431392511    0.7553403819
O       -3.2050976050   -2.1360297022   -0.0667222928
S       -1.0528726415   -1.4682728060   -2.7903980653
H       -0.3229345148    2.0564798959   -2.1116275891
H       -1.3201670399    0.8423494288    0.0351358424
H       -0.1268009576    0.4543465166   -4.1369703848
H       -0.4168948297   -2.0439656485    1.2878835194
H       -0.4504972004   -3.4257203664    0.1644937348
H       -1.6451406974   -3.3198257113    1.4824547412
14   

C       -0.4871542927    0.9742211369   -2.0568033379
C       -0.9474172067    0.2149028808   -0.9040266189
C       -0.5328199509    0.2392091166   -3.2143031068
C       -1.2838391138   -1.0800864315   -1.2256654796
C       -1.9347339465   -2.0913443136   -0.3261043314
C       -1.2142315801   -2.5312456797    0.9386402163
O       -3.1124617685   -2.3836764894   -0.4572348947
S       -1.1222723617   -1.3987445765   -2.9496634197
H       -0.1610379828    2.0077519428   -2.0066104789
H       -1.0425169620    0.6359851278    0.0915697231
H       -0.2461587295    0.6164943329   -4.1888617853
H       -0.6272882427   -1.7045655803    1.3462122949
H       -0.5433351347   -3.3611340623    0.7019863713
H       -1.9386071031   -2.8592729788    1.6892018526
14   

C       -0.4234991505    0.9296278771   -2.0361253609
C       -0.8243100039    0.1375057862   -0.8833355230
C       -0.6092328687    0.2582292783   -3.2177554119
C       -1.2573627321   -1.1247078004   -1.2333179558
C       -1.8960043232   -2.1382527483   -0.3434972628
C       -1.2762761043   -2.4418399727    1.0128229830
O       -3.0198234132   -2.5627668352   -0.5726440856
S       -1.2616402002   -1.3595422595   -2.9790499297
H       -0.0383938804    1.9416012965   -1.9677226126
H       -0.8127898450    0.5184453080    0.1324751582
H       -0.3881075978    0.6699705079   -4.1954260966
H       -0.8262725304   -1.5427134102    1.4395228675
H       -0.5021962198   -3.2042705360    0.8929241523
H       -2.0412411217   -2.8152407267    1.6992619461
14   

C       -0.3897662280    0.8964937363   -2.0364351689
C       -0.7374800805    0.0719919908   -0.8891600050
C       -0.6982547481    0.2884813937   -3.2263109980
C       -1.2639674749   -1.1519888433   -1.2544037807
C       -1.8611434866   -2.1918134354   -0.3796199062
C       -1.3066648642   -2.4141910775    1.0204043084
O       -2.9082092892   -2.7510237967   -0.6832084283
S       -1.4082450411   -1.3068972606   -3.0042623817
H        0.0496705244    1.8852848081   -1.9572060052
H       -0.6173707854    0.4058994894    0.1358856871
H       -0.5325317768    0.7328923213   -4.2006326266
H       -1.1010101257   -1.4592229112    1.5085556474
H       -0.3808239998   -2.9917318204    0.9556041753
H       -2.0297516650   -2.9690344365    1.6248425534
14   

C       -0.3436590151    0.8790896431   -2.0286630231
C       -0.6420081041    0.0209014014   -0.8923394750
C       -0.8080610321    0.3586915033   -3.2092306008
C       -1.3014107853   -1.1379791521   -1.2575414775
C       -1.8598170092   -2.1968289221   -0.3906537969
C       -1.3224493619   -2.3826866919    1.0205372154
O       -2.8383137072   -2.8506162734   -0.7374369261
S       -1.6140575388   -1.1910152125   -2.9923719111
H        0.1774031627    1.8272795274   -1.9478777916
H       -0.3864552051    0.2817780998    0.1292306225
H       -0.7000398714    0.8402042228   -4.1739842348
H       -1.4110834407   -1.4492782922    1.5815314132
H       -0.2717784894   -2.6810173033    0.9755714626
H       -1.8905939560   -3.1615054330    1.5371007417
14   

C       -0.3115284494    0.8590296814   -2.0500534061
C       -0.5657069667   -0.0318939899   -0.9283241354
C       -0.8765374787    0.4042412881   -3.2135057276
C       -1.3066916913   -1.1437342377   -1.2849035480
C       -1.8115499548   -2.2397516592   -0.4379145525
C       -1.3208431625   -2.3805463699    0.9951791843
O       -2.6770608332   -3.0098379120   -0.8449375615
S       -1.7314763362   -1.1188774450   -2.9972358454
H        0.2557328462    1.7805534372   -1.9718957050
H       -0.2147697161    0.1694638488    0.0783660573
H       -0.8124288951    0.9173056507   -4.1658362104
H       -1.5464757381   -1.4704376282    1.5565356292
H       -0.2412364357   -2.5516606529    0.9988094783
H       -1.8163034365   -3.2274972789    1.4782683818
14   

C       -0.3066924275    0.8648430606   -2.0602561074
C       -0.5085707788   -0.0624512893   -0.9575424371
C       -0.9773836568    0.4801447477   -3.1923659437
C       -1.3294720944   -1.1237153871   -1.2930204723
C       -1.7724029326   -2.2610624425   -0.4683687259
C       -1.3152675932   -2.3771666463    0.9779159746
O       -2.5113566758   -3.1274156332   -0.9287933249
S       -1.8767144641   -1.0158055030   -2.9672974503
H        0.3050278215    1.7583412735   -1.9927381416
H       -0.0581449447    0.0739021478    0.0200627893
H       -0.9631961298    1.0275634912   -4.1274654351
H       -1.6493068031   -1.5027442496    1.5422324921
H       -0.2247666322   -2.4400413095    1.0167036976
H       -1.7394381785   -3.2768275325    1.4327452464
