14   

C       -0.3065459497    0.8554481577   -2.0520888333
C       -0.4546071975   -0.1050800792   -0.9694483587
C       -1.0806055831    0.5379281564   -3.1382577753
C       -1.3506898695   -1.1149877132   -1.2687436784
C       -1.7304182729   -2.2922533309   -0.4666153984
C       -1.3075400949   -2.3876659241    0.9916171138
O       -2.3294401386   -3.2374974564   -0.9720184232
S       -2.0200119685   -0.9296792912   -2.8906880290
H        0.3465331743    1.7205728969   -2.0057594841
H        0.0920406452   -0.0322596336   -0.0351033658
H       -1.1170814944    1.1170254773   -4.0534588452
H       -1.7454386514   -1.5603979563    1.5561624073
H       -0.2181956103   -2.3424683058    1.0665438411
H       -1.6538208643   -3.3325452721    1.4199612749
14   

C       -0.2946222500    0.8543412769   -2.0632318692
C       -0.3905704092   -0.1379795954   -1.0036018180
C       -1.1700258575    0.6058876743   -3.0889324873
C       -1.3587959404   -1.0927946966   -1.2525436759
C       -1.6833273090   -2.3078098064   -0.4759223624
C       -1.3077017582   -2.3896113332    0.9961828094
O       -2.1351530253   -3.3085596990   -1.0232198911
S       -2.1483258416   -0.8300315226   -2.8075476214
H        0.3984911957    1.6888619826   -2.0469770427
H        0.2475045693   -0.1298730704   -0.1262565565
H       -1.2566126051    1.2162638017   -3.9801202373
H       -1.8727465576   -1.6425653845    1.5597226454
H       -0.2379379024   -2.2061753708    1.1215573314
H       -1.5444092014   -3.3831064825    1.3874869514
14   

C       -0.2472603049    0.8028638424   -2.0890738324
C       -0.3015569375   -0.2145016959   -1.0503401806
C       -1.2328789979    0.6398734618   -3.0285624942
C       -1.3545341552   -1.0924862340   -1.2209316686
C       -1.6491226625   -2.3311886240   -0.4580830067
C       -1.3279055493   -2.4003390213    1.0281883499
O       -1.9728501424   -3.3657276587   -1.0291846102
S       -2.2696876718   -0.7407454239   -2.6857146998
H        0.4977455395    1.5908472965   -2.1228091824
H        0.4284794890   -0.2814485988   -0.2508376856
H       -1.3654625772    1.2803543033   -3.8925495842
H       -2.0969838096   -1.8639890723    1.5901322713
H       -0.3541245626   -1.9502001296    1.2323350815
H       -1.3090329622   -3.4428215466    1.3582267130
14   

C       -0.2100699943    0.7893927245   -2.1149867371
C       -0.2200324475   -0.2596222585   -1.1067707268
C       -1.2786733465    0.6982197350   -2.9701461261
C       -1.3235462433   -1.0812301735   -1.2088630145
C       -1.5776250923   -2.3475233285   -0.4612913751
C       -1.3630167536   -2.3849538957    1.0448208287
O       -1.7322831720   -3.4089119416   -1.0488497906
S       -2.3422284955   -0.6493762752   -2.5794589126
H        0.5641983791    1.5456250800   -2.1904606985
H        0.5749220690   -0.3935573442   -0.3806662009
H       -1.4554471468    1.3714803084   -3.8006510408
H       -2.2712760443   -2.0417878693    1.5469939079
H       -0.5322047746   -1.7361080341    1.3307498844
H       -1.1419166996   -3.4064090728    1.3666005627
14   

C       -0.6219635616    0.8800611158   -2.0639406258
C       -1.1450669118   -0.0649323251   -1.0889284289
C       -0.4756350475    0.3165331479   -3.3061808739
C       -1.4151212492   -1.2964541590   -1.6403818861
C       -1.8168223781   -2.5434715178   -0.9060892980
C       -3.1130666429   -2.5508257103   -0.1111641246
O       -1.0245455112   -3.4563687255   -0.7369375789
S       -0.9754955882   -1.3714025740   -3.3435911396
H       -0.3631721587    1.9071631332   -1.8291092859
H       -1.2771810289    0.1702044179   -0.0378226945
H       -0.0908466490    0.8408067643   -4.1729901604
H       -3.9398268772   -2.8261366042   -0.7710848321
H       -3.3061178235   -1.5595812240    0.3061913055
H       -3.0495443919   -3.2759192412    0.7048423917
14   

C       -0.4983654903    0.8467308471   -2.0643728971
C       -0.9173150948   -0.0855629361   -1.0284651517
C       -0.5621192550    0.2927375962   -3.3180284950
C       -1.2879360180   -1.3051362919   -1.5376537288
C       -1.7648391147   -2.5112642233   -0.7692471844
C       -3.2429167575   -2.6514193492   -0.4462538447
O       -0.9797236160   -3.3504274001   -0.3625347335
S       -1.1304632598   -1.3735845322   -3.2894585119
H       -0.1687235163    1.8608456414   -1.8643974161
H       -0.9267130589    0.1539064779    0.0300373345
H       -0.2907371757    0.8124400973   -4.2294059898
H       -3.8078118336   -2.7936431949   -1.3710610288
H       -3.5978450839   -1.7473383203    0.0549760104
H       -3.4047095085   -3.5117938947    0.2091502280
14   

C       -0.4076298053    0.8153405700   -2.0198504698
C       -0.7440421611   -0.0978614223   -0.9381253719
C       -0.6850805031    0.2832247612   -3.2532420283
C       -1.2369854488   -1.2979385216   -1.3913625990
C       -1.7865034570   -2.4130662445   -0.5485148739
C       -3.2534318215   -2.7943664481   -0.6762443457
O       -1.0475526772   -3.1403789562    0.0954182174
S       -1.3539286265   -1.3418710808   -3.1490897315
H        0.0114554295    1.8039385437   -1.8644118142
H       -0.6261470139    0.1430867190    0.1137090530
H       -0.5117219255    0.7961770786   -4.1919760678
H       -3.5480773604   -2.8230450456   -1.7278754890
H       -3.8663847961   -2.0556338878   -0.1533947181
H       -3.4253450413   -3.7786654153   -0.2318477687
14   

C       -0.3297748223    0.7853674731   -2.0242403053
C       -0.6382617849   -0.1261216702   -0.9330614708
C       -0.7584007524    0.3074925128   -3.2360687325
C       -1.2578311543   -1.2794122889   -1.3598061234
C       -1.8276026026   -2.3393563969   -0.4745410517
C       -3.2384468770   -2.8552437326   -0.7183687895
O       -1.1176405569   -2.9397640343    0.3196301895
S       -1.5395575821   -1.2641627206   -3.1005059769
H        0.1764421797    1.7354547127   -1.8893370733
H       -0.4155914118    0.0813351649    0.1091227424
H       -0.6318899387    0.8301226862   -4.1769467625
H       -3.3779472884   -3.1048007744   -1.7726273162
H       -3.9603529085   -2.0860791037   -0.4316732040
H       -3.4179792408   -3.7510655823   -0.1172527374
14   

C       -0.2646881132    0.7737290648   -2.0497206584
C       -0.5570472603   -0.1356684096   -0.9524829017
C       -0.8238020818    0.3581531144   -3.2310058709
C       -1.3000820959   -1.2283284570   -1.3470606837
C       -1.8651163358   -2.2571847922   -0.4338124941
C       -3.2149586195   -2.8929624148   -0.7336816578
O       -1.1824790589   -2.7286443510    0.4671185346
S       -1.7144767512   -1.1506608805   -3.0597757907
H        0.3240136818    1.6784173102   -1.9398328800
H       -0.2362432295    0.0278490513    0.0719956666
H       -0.7307137930    0.8911521299   -4.1699618321
H       -3.2313340428   -3.2895702850   -1.7515196233
H       -4.0030403093   -2.1433926452   -0.6237593942
H       -3.4053456417   -3.7115800890   -0.0338567983
14   

C       -0.2137491364    0.7509351736   -2.0810971044
C       -0.5107853899   -0.1501515131   -0.9782809578
C       -0.8788553198    0.4033914113   -3.2291020254
C       -1.3729220135   -1.1669913658   -1.3360935539
C       -1.9360842633   -2.1781790101   -0.4091852739
C       -3.2262461468   -2.9091923249   -0.7516414948
O       -1.3019172712   -2.5312447509    0.5789154469
S       -1.8816296819   -1.0284196865   -3.0194711175
H        0.4548367951    1.6013686411   -1.9983722640
H       -0.1073255874   -0.0367734424    0.0236830901
H       -0.8003051293    0.9431191543   -4.1655332965
H       -3.1513343594   -3.3661758601   -1.7413245815
H       -4.0607710305   -2.2032221819   -0.7391303989
H       -3.4160927387   -3.6949552242   -0.0149732090
14   

C       -0.1762552987    0.7332254377   -2.1015475060
C       -0.4698753351   -0.1626618289   -0.9935717124
C       -0.9431172118    0.4622432860   -3.2060060234
C       -1.4424016995   -1.0931795458   -1.3023089839
C       -1.9927736353   -2.1044403436   -0.3714735702
C       -3.2306290134   -2.9085708370   -0.7412549305
O       -1.4132207524   -2.3549658378    0.6803912698
S       -2.0445228635   -0.8868307283   -2.9474917523
H        0.5642114483    1.5247293930   -2.0535004831
H        0.0166134750   -0.1090423148   -0.0239203413
H       -0.8834387210    1.0116330861   -4.1381998542
H       -3.0722605267   -3.4250592892   -1.6912672800
H       -4.0907974999   -2.2397872365   -0.8292207920
H       -3.4374238641   -3.6518117639    0.0339716105
14   

C       -0.1398067321    0.6900777746   -2.1089645927
C       -0.4399870213   -0.2006549647   -0.9985703237
C       -0.9905636548    0.5043690101   -3.1687923562
C       -1.5113528857   -1.0332458531   -1.2567245076
C       -2.0595452104   -2.0468075813   -0.3281696986
C       -3.2471364672   -2.9084361829   -0.7313764335
O       -1.5579644205   -2.2042578899    0.7805844471
S       -2.1843067066   -0.7532481354   -2.8630561761
H        0.6659966186    1.4164069199   -2.0948130162
H        0.1140036605   -0.2147924763   -0.0643690482
H       -0.9405865882    1.0649888641   -4.0948495646
H       -3.0058452601   -3.4743284063   -1.6348294452
H       -4.1173844533   -2.2745644427   -0.9200966476
H       -3.4878389021   -3.6106365291    0.0718236326
14   

C       -0.1157432737    0.6562676685   -2.1057666326
C       -0.4080271488   -0.2373615760   -0.9956183574
C       -1.0562186467    0.5735511216   -3.1007424716
C       -1.5708550505   -0.9584949081   -1.1821617379
C       -2.1055814874   -1.9836147615   -0.2573902270
C       -3.2543332605   -2.8878457807   -0.6798551301
O       -1.6743232407   -2.0663163370    0.8881755346
S       -2.3297582337   -0.5842709113   -2.7300169674
H        0.7497179922    1.3097050201   -2.1385464084
H        0.2182741670   -0.3350527489   -0.1135893906
H       -1.0268688223    1.1533115443   -4.0158336597
H       -2.9306600709   -3.5343992905   -1.4996761413
H       -4.1060029620   -2.2854554482   -1.0056093163
H       -3.5660201563   -3.5122738463    0.1622172724
14   

C       -0.0996357758    0.6145551173   -2.1190329414
C       -0.3999016519   -0.2788660712   -1.0108762343
C       -1.1011235828    0.6345276051   -3.0558554896
C       -1.6328272759   -0.8873203105   -1.1334554190
C       -2.1730206403   -1.9205873837   -0.2173056566
C       -3.2577666564   -2.8800719206   -0.6852885025
O       -1.8476585908   -1.9289745745    0.9647551831
S       -2.4445456044   -0.4199642338   -2.6283090946
H        0.8150929272    1.1932462888   -2.1930330295
H        0.2723440820   -0.4587744035   -0.1770393584
H       -1.0772364686    1.2311531509   -3.9602046985
H       -2.8484257448   -3.5525417490   -1.4437124832
H       -4.0987114604   -2.3246938699   -1.1074867958
H       -3.6179921294   -3.4753560146    0.1585228067
14   

C       -0.0774939920    0.5527984446   -2.1177929806
C       -0.3906852830   -0.3332301495   -1.0072601032
C       -1.1242533223    0.6746806377   -2.9953907163
C       -1.6771755629   -0.8264753962   -1.0631013315
C       -2.2433077816   -1.8538892055   -0.1488016513
C       -3.2381865444   -2.8812666617   -0.6692857625
O       -2.0537401969   -1.7811944517    1.0589874196
S       -2.5268171441   -0.2694703788   -2.5049767756
H        0.8778535745    1.0531414504   -2.2364256627
H        0.3122429084   -0.5907558931   -0.2206340914
H       -1.1004322793    1.2837599144   -3.8914076376
H       -2.7336347209   -3.5569538278   -1.3649049907
H       -4.0652500308   -2.3845908408   -1.1819688635
H       -3.6402412204   -3.4660171433    0.1629127148
14   

C       -0.0683543317    0.4833116363   -2.1269741006
C       -0.3906636079   -0.4092954432   -1.0242410757
C       -1.1523917892    0.7270329785   -2.9307688620
C       -1.7159660733   -0.7826698754   -1.0095420520
C       -2.3234443515   -1.7980050239   -0.0974803990
C       -3.2064217120   -2.8989043676   -0.6670496193
O       -2.2862138867   -1.6511708156    1.1159005964
S       -2.6009234997   -0.1053647499   -2.3761844881
H        0.9188958140    0.9013113660   -2.2935082294
H        0.3351788947   -0.7554925690   -0.2948105528
H       -1.1300228066    1.3618706326   -3.8087662995
H       -2.5871982332   -3.6120816927   -1.2174108090
H       -3.9561274425   -2.4780520954   -1.3408712265
H       -3.7172311674   -3.4255467064    0.1439943114
14   

C       -0.0589836027    0.4169145194   -2.1765371173
C       -0.3938758657   -0.4943642497   -1.0927200614
C       -1.1638134946    0.7964503714   -2.8953475874
C       -1.7418161475   -0.7495755374   -1.0120213468
C       -2.4115914334   -1.7288531260   -0.0910236035
C       -3.1376841530   -2.9302842100   -0.6766090397
O       -2.5471705920   -1.4862142054    1.0974299167
S       -2.6463548185    0.0723227079   -2.2814611652
H        0.9503075722    0.7527696953   -2.3902009456
H        0.3403687281   -0.9321432055   -0.4237314491
H       -1.1375909562    1.4691237270   -3.7445930006
H       -2.4050001518   -3.6764166745   -0.9948351127
H       -3.7374242105   -2.6283042725   -1.5384044972
H       -3.7950101425   -3.3748290567    0.0758497446
14   

C       -0.6052749993    1.0091757844   -2.0888229108
C       -1.1464987589    0.3438660674   -0.9131341308
C       -0.5009854411    0.1617935774   -3.1629345499
C       -1.4240385114   -0.9810423145   -1.1402192483
C       -2.0007126556   -1.9753138371   -0.1647514271
C       -1.0666003762   -2.7431723541    0.7553094031
O       -3.2050976050   -2.1360297022   -0.0667222928
S       -1.0528586055   -1.4682764636   -2.7903938656
H       -0.3229284058    2.0564783098   -2.1116256446
H       -1.3201713505    0.8423505411    0.0351344711
H       -0.1267804343    0.4543411986   -4.1369640881
H       -0.4169251658   -2.0440135777    1.2879130298
H       -0.4504597105   -3.4256954819    0.1644314817
H       -1.6451357431   -3.3199247503    1.4823728483
14   

C       -0.4871309273    0.9742127019   -2.0567996123
C       -0.9474172067    0.2149028808   -0.9040266189
C       -0.5327703465    0.2391913651   -3.2142947441
C       -1.2838391138   -1.0800864315   -1.2256654796
C       -1.9347339465   -2.0913443136   -0.3261043314
C       -1.2142083986   -2.5312905980    0.9386110463
O       -3.1124617685   -2.3836764894   -0.4572348947
S       -1.1222252102   -1.3987617160   -2.9496555038
H       -0.1610173015    2.0077444124   -2.0066078621
H       -1.0425314176    0.6359897298    0.0915664141
H       -0.2460895259    0.6164699354   -4.1888502305
H       -0.6272660345   -1.7046207813    1.3462056236
H       -0.5433089274   -3.3611643731    0.7019147606
H       -1.9385700365   -2.8593520476    1.6891711962
14   

C       -0.4234795665    0.9296195245   -2.0361243126
C       -0.8243100039    0.1375057862   -0.8833355230
C       -0.6091912834    0.2582115970   -3.2177527609
C       -1.2573627321   -1.1247078004   -1.2333179558
C       -1.8960043232   -2.1382527483   -0.3434972628
C       -1.2762511501   -2.4418739276    1.0128035962
O       -3.0198234132   -2.5627668352   -0.5726440856
S       -1.2616006417   -1.3595593609   -2.9790473739
H       -0.0383765876    1.9415938686   -1.9677223251
H       -0.8128022238    0.5184492893    0.1324738585
H       -0.3880495972    0.6699461872   -4.1954225304
H       -0.8262487382   -1.5427544281    1.4395199817
H       -0.5021667252   -3.2042945234    0.8928710486
H       -2.0412021450   -2.8152994504    1.6992447411
14   

C       -0.3897515513    0.8964867294   -2.0364357590
C       -0.7374800805    0.0719919908   -0.8891600050
C       -0.6982235821    0.2884664756   -3.2263119904
C       -1.2639674749   -1.1519888433   -1.2544037807
C       -1.8611434866   -2.1918134354   -0.3796199062
C       -1.3066399702   -2.4142174125    1.0203899654
O       -2.9082092892   -2.7510237967   -0.6832084283
S       -1.4082153802   -1.3069116708   -3.0042632823
H        0.0496833939    1.8852786346   -1.9572069470
H       -0.6173806275    0.4059028329    0.1358858124
H       -0.5324883656    0.7328717548   -4.2006341111
H       -1.1009877946   -1.4592571098    1.5085580879
H       -0.3807938980   -2.9917466778    0.9555624295
H       -2.0297116349   -2.9690813813    1.6248274085
14   

C       -0.3436496479    0.8790843376   -2.0286645682
C       -0.6420081041    0.0209014014   -0.8923394750
C       -0.8080411905    0.3586802346   -3.2092337262
C       -1.3014107853   -1.1379791521   -1.2575414775
C       -1.8598170092   -2.1968289221   -0.3906537969
C       -1.3224273305   -2.3827075460    1.0205259110
O       -2.8383137072   -2.8506162734   -0.7374369261
S       -1.6140387043   -1.1910260182   -2.9923748286
H        0.1774113860    1.8272748493   -1.9478793805
H       -0.3864616730    0.2817809488    0.1292315443
H       -0.7000122399    0.8401886303   -4.1739886456
H       -1.4110752955   -1.4493133466    1.5815416739
H       -0.2717503105   -2.6810134977    0.9755405696
H       -1.8905483609   -3.1615505576    1.5370787583
14   

C       -0.3115238629    0.8590268777   -2.0500545922
C       -0.5657069667   -0.0318939899   -0.9283241354
C       -0.8765277823    0.4042353465   -3.2135081940
C       -1.3066916913   -1.1437342377   -1.2849035480
C       -1.8115499548   -2.2397516592   -0.4379145525
C       -1.3208299894   -2.3805567601    0.9951736046
O       -2.6770608332   -3.0098379120   -0.8449375615
S       -1.7314671778   -1.1188830902   -2.9972381570
H        0.2557368991    1.7805509555   -1.9718968120
H       -0.2147728280    0.1694655193    0.0783668159
H       -0.8124153691    0.9172973923   -4.1658396673
H       -1.5464715725   -1.4704578394    1.5565423915
H       -0.2412207517   -2.5516553588    0.9987938350
H       -1.8162743762   -3.2275206282    1.4782563755
14   

C       -0.3066924405    0.8648430712   -2.0602561010
C       -0.5085707788   -0.0624512893   -0.9575424371
C       -0.9773836790    0.4801447663   -3.1923659353
C       -1.3294720944   -1.1237153871   -1.2930204723
C       -1.7724029326   -2.2610624425   -0.4683687259
C       -1.3152675472   -2.3771666848    0.9779159576
O       -2.5113566758   -3.1274156332   -0.9287933249
S       -1.8767144820   -1.0158054880   -2.9672974441
H        0.3050278041    1.7583412866   -1.9927381327
H       -0.0581449406    0.0739021434    0.0200627881
H       -0.9631961611    1.0275635192   -4.1274654212
H       -1.6493068121   -1.5027443471    1.5422325335
H       -0.2247665814   -2.4400412711    1.0167036516
H       -1.7394380489   -3.2768276305    1.4327451906
