14   

C       -1.7011919632   -0.2959348554    0.1206269214
C        0.4076507823   -0.7134711401    0.1434816868
C        1.7730573129   -1.3318565289    0.0555675803
C        0.2773311457    0.8242679608    0.1942988081
N        1.3612999919    2.0365367437   -1.9197596045
N       -1.1913237788    0.9108286407    0.1724194027
N       -0.7573034521   -1.3065041333    0.0912776825
N        0.8681642054    1.4878162749   -0.9739782116
N        1.8227321580   -2.6275193672   -0.2958711529
O        2.7942458081   -0.6755540033    0.1548475828
H       -2.7725698931   -0.4822483107    0.0994659203
H        0.7080398786    1.2170669585    1.1249050608
H        2.7417100235   -3.0533947848   -0.3786422015
H        0.9749134495   -3.1821482153   -0.3714072108
14   

C       -1.7273989349   -0.3290672969    0.1098809456
C        0.3844786400   -0.7221975334    0.2211090475
C        1.7549254493   -1.3379939925    0.1760723541
C        0.2360204193    0.8170008366    0.1814011877
N        1.3686746210    1.9233507090   -1.9648828328
N       -1.2320677173    0.8847976375    0.1135593677
N       -0.7725897032   -1.3288786375    0.1535252872
N        0.8550047679    1.4209973573   -1.0043294564
N        1.8391590504   -2.5547442420   -0.3971478306
O        2.7631737297   -0.6934151397    0.4008327339
H       -2.7958527268   -0.5288628859    0.0711404276
H        0.6354718729    1.2651106040    1.1010327131
H        2.7656283344   -2.9654506646   -0.4740398996
H        1.0039886129   -3.1060199429   -0.5721360480
14   

C       -1.7314009520   -0.3398321917    0.0285833237
C        0.3690076636   -0.7524051844    0.2530198917
C        1.7269031564   -1.4014634872    0.2965033448
C        0.2382949966    0.7905043621    0.1545090687
N        1.4558368953    1.8098446795   -1.9882234032
N       -1.2248511140    0.8693787993    0.0242683186
N       -0.7897796875   -1.3473181032    0.1354813903
N        0.9066519588    1.3452292430   -1.0282362519
N        1.8911293754   -2.4848975083   -0.4952976491
O        2.7050376255   -0.8113237457    0.7162783810
H       -2.7994432653   -0.5307550238   -0.0477157100
H        0.6070433733    1.2664760708    1.0731613352
H        2.8230179796   -2.8901769074   -0.5201596410
H        1.0864211977   -3.0089559802   -0.8262384972
14   

C       -1.7346900552   -0.2961392157   -0.0339593938
C        0.3474558878   -0.7520451430    0.2677182009
C        1.6803901280   -1.4461387210    0.3928176440
C        0.2566422194    0.7940776668    0.1112689789
N        1.5274315959    1.7105381357   -2.0468733414
N       -1.2007507222    0.9011641903   -0.0566075831
N       -0.8202445380   -1.3216212109    0.1236818861
N        0.9568957899    1.2907915111   -1.0786134037
N        1.9729381869   -2.3616467768   -0.5622428206
O        2.5965362181   -0.9445934567    1.0164181915
H       -2.8047932558   -0.4649919413   -0.1304379094
H        0.6171969270    1.2942735849    1.0204555016
H        2.9051383322   -2.7649164455   -0.5152820060
H        1.2279115450   -2.8433009164   -1.0563527973
14   

C       -1.7535417385   -0.2775051893   -0.0174747950
C        0.3180538823   -0.7738718897    0.2958949870
C        1.6277624011   -1.5074585558    0.4643432764
C        0.2640426328    0.7698119380    0.0774664115
N        1.5293599109    1.5784789733   -2.1265350207
N       -1.1911672312    0.9049706953   -0.0880164889
N       -0.8636089679   -1.3180231612    0.1748647206
N        0.9630588142    1.2058675889   -1.1366358689
N        2.0526648457   -2.2348355626   -0.6018773895
O        2.4638799034   -1.1262131069    1.2604810662
H       -2.8279276607   -0.4241542513   -0.1017935743
H        0.6404721045    1.2970094473    0.9648345845
H        2.9792008689   -2.6418540598   -0.4996082532
H        1.3782243231   -2.6579653113   -1.2317387740
14   

C       -1.7680449000   -0.2459707962    0.0789844965
C        0.2996597480   -0.7920059971    0.3356095833
C        1.5871909244   -1.5656348305    0.5192980856
C        0.2807000240    0.7442573086    0.0490003350
N        1.4758704654    1.4389344666   -2.2318545386
N       -1.1751430668    0.9140875704   -0.0717397390
N       -0.9019774344   -1.3018747919    0.2913347876
N        0.9422519267    1.1158628025   -1.2068794636
N        2.1277107170   -2.0930091785   -0.6171458446
O        2.3323790432   -1.3506723878    1.4549232201
H       -2.8485326339   -0.3644652921    0.0409699480
H        0.6995791860    1.2987970115    0.8999729771
H        3.0427015917   -2.5172529396   -0.4815358954
H        1.5209932384   -2.4348208850   -1.3553862039
14   

C       -1.7830060096   -0.1865654343    0.2354394312
C        0.2774416643   -0.8051179342    0.3704896714
C        1.5384658250   -1.6240434986    0.5644918811
C        0.2934019919    0.7187467279    0.0131790579
N        1.3402615133    1.3014785898   -2.3699601767
N       -1.1600925788    0.9389853844   -0.0204228621
N       -0.9433416515   -1.2615141049    0.4521428669
N        0.8745416179    1.0259091577   -1.2988459000
N        2.1992214636   -1.9494307370   -0.5922723189
O        2.1514951054   -1.6507815690    1.6129861801
H       -2.8671074492   -0.2648905356    0.2749383540
H        0.7827785316    1.2946936789    0.8105504772
H        3.0899895271   -2.4143158900   -0.4275381174
H        1.6722537514   -2.1725960431   -1.4296105024
14   

C       -1.7823516489   -0.0889875743    0.4076825982
C        0.2545751482   -0.8047040013    0.3858589030
C        1.4831073331   -1.6721015969    0.5933588622
C        0.3027634664    0.7012822517   -0.0464225339
N        1.1204334429    1.1643114508   -2.5434279555
N       -1.1361379823    0.9904760136    0.0373113737
N       -0.9730065006   -1.1866464362    0.6165543143
N        0.7601747314    0.9387551908   -1.4208236451
N        2.2774708666   -1.8110286572   -0.5236492329
O        1.8937993956   -2.0354326086    1.6772548101
H       -2.8612553235   -0.1150752258    0.5428583814
H        0.8845099131    1.2911602451    0.6748937555
H        3.1186647596   -2.3556648219   -0.3405063925
H        1.8617614075   -1.8469393411   -1.4465328837
14   

C       -1.7616266116   -0.0209166157    0.5542552904
C        0.2390099571   -0.8274062185    0.3870258388
C        1.4329334211   -1.7487110592    0.5755436052
C        0.3093620072    0.6659019749   -0.0871899648
N        0.8683185152    1.0464613689   -2.6689652615
N       -1.1017949199    1.0231695523    0.1144673541
N       -0.9826239034   -1.1449125145    0.7257655702
N        0.6286002924    0.8558793132   -1.5078295459
N        2.3557810668   -1.7023535717   -0.4539749633
O        1.6546043020   -2.4234263156    1.5612499307
H       -2.8266812136    0.0001470764    0.7737937460
H        0.9799561154    1.2496417093    0.5577533868
H        3.1472829562   -2.3246700064   -0.2970770834
H        2.0859753041   -1.4788706195   -1.4022123070
14   

C       -1.7441641675    0.0399647077    0.6208133041
C        0.2232454515   -0.8375290676    0.3737468881
C        1.3764366113   -1.8157945417    0.5457294184
C        0.3118612943    0.6465596772   -0.1325364808
N        0.6863063883    0.9196687542   -2.7618415975
N       -1.0712735780    1.0578607831    0.1422328552
N       -0.9941387716   -1.1059160838    0.7688240324
N        0.5337900215    0.7804169522   -1.5783781935
N        2.4332023924   -1.6226293154   -0.3283450838
O        1.4320127325   -2.7104176769    1.3663421987
H       -2.7961999861    0.0976254037    0.8907695331
H        1.0417459545    1.2241290335    0.4503604185
H        3.1841229060   -2.3007202707   -0.2068290690
H        2.3876214489   -1.0657775361   -1.1689638145
14   

C       -1.7418544821   -0.3644370696   -0.1654557108
C        0.3485540042   -0.7484078713    0.2830202006
C        1.6090552851   -1.5423752629    0.5939521648
C        0.1247883611    0.8000940600    0.3898817965
N        1.3788589162    2.1746569167   -1.5253542857
N       -1.3121442031    0.8463106892    0.0918200352
N       -0.7705115058   -1.3347031239   -0.0576159934
N        0.8298628238    1.5509349896   -0.6575533894
N        2.7542834529   -0.7673156778    0.7026709921
O        1.6982447702   -2.7536533489    0.6410546809
H       -2.7739714442   -0.5862524472   -0.4272257741
H        0.3508702296    1.1761994531    1.3960032399
H        3.5973832854   -1.3152023019    0.8688533163
H        2.7787289123    0.2382500281    0.7905786645
14   

C       -1.7513804809   -0.3570012895   -0.1101821683
C        0.3455043941   -0.7562158356    0.2806253148
C        1.6294302241   -1.5332064724    0.5137434681
C        0.1503806891    0.7957634342    0.3433430871
N        1.4000808021    2.0680113282   -1.6437504163
N       -1.2941425538    0.8553186371    0.0863726059
N       -0.7916600483   -1.3388029139    0.0001360039
N        0.8496232189    1.4925542563   -0.7443613827
N        2.7221039350   -0.7306094263    0.8123324212
O        1.7839314443   -2.7279760963    0.3535474402
H       -2.7948562389   -0.5707271414   -0.3303691250
H        0.4074786217    1.2016404612    1.3296536051
H        3.5811772160   -1.2648720789    0.9365248024
H        2.6632525496    0.2086970625    1.1802452517
14   

C       -1.7647800313   -0.3478648792   -0.0310351303
C        0.3426580357   -0.7366986184    0.2981037189
C        1.6517761835   -1.4883338979    0.4544104601
C        0.1542394689    0.8166830181    0.3084826950
N        1.3688420172    1.9947954619   -1.7562327894
N       -1.2982624720    0.8702250375    0.0983177383
N       -0.8035213273   -1.3284338432    0.0826731720
N        0.8316342427    1.4627710408   -0.8230202509
N        2.6887786218   -0.7091008631    0.9405229988
O        1.8675463914   -2.6300437658    0.0985334511
H       -2.8159403164   -0.5663259996   -0.2052138891
H        0.4437042475    1.2595810854    1.2690371221
H        3.5617518252   -1.2291710294    1.0194787392
H        2.5495599798    0.1056821076    1.5235332984
14   

C       -1.7517638283   -0.3385431729    0.0237760894
C        0.3658459686   -0.7068239256    0.2950943158
C        1.6941680767   -1.4335579347    0.3945407396
C        0.1715100070    0.8460139922    0.2580722620
N        1.3300019199    1.9418386068   -1.8822948551
N       -1.2877809921    0.8855066593    0.0958907263
N       -0.7823341689   -1.3119588970    0.1373090407
N        0.8165464037    1.4475914591   -0.9156993335
N        2.6691108802   -0.7380782834    1.0790351526
O        1.9707130105   -2.4814094734   -0.1551237808
H       -2.8071217759   -0.5664992353   -0.1075705568
H        0.4939486940    1.3236947924    1.1908800381
H        3.5513898687   -1.2458205189    1.1253165753
H        2.4532843750   -0.0670080767    1.8058418077
14   

C       -1.7473665275   -0.3422034993    0.0967518145
C        0.3815438403   -0.6771151668    0.2972371969
C        1.7274310793   -1.3741258488    0.3559239051
C        0.1693303269    0.8719650175    0.2097125435
N        1.2410706196    1.8800245049   -2.0169002290
N       -1.2960062817    0.8888866718    0.1063551222
N       -0.7630371837   -1.3019490404    0.2080404093
N        0.7654082493    1.4265555522   -1.0118537944
N        2.6324487356   -0.8119915624    1.2206433041
O        2.0798416591   -2.2671246137   -0.3891675347
H       -2.8043786026   -0.5852079986    0.0151219580
H        0.5286187036    1.3879614389    1.1081748210
H        3.5270672630   -1.2989916313    1.2323580208
H        2.3431129744   -0.2960260453    2.0434645881
14   

C       -1.6973372141   -0.3432442922    0.1742287010
C        0.4404894801   -0.6331122577    0.2944091480
C        1.8085438749   -1.2822926151    0.3324212919
C        0.2002034656    0.9080628477    0.1638755492
N        1.1839585145    1.8323452033   -2.1380398236
N       -1.2686048222    0.8950736435    0.1196086960
N       -0.6926281346   -1.2834369093    0.2840737092
N        0.7455783788    1.4190458542   -1.0994673788
N        2.6231474973   -0.8926953201    1.3556022831
O        2.2820486830   -1.9025941463   -0.5995864512
H       -2.7524226308   -0.6055732649    0.1432261149
H        0.5906707422    1.4593129456    1.0280468535
H        3.5474915849   -1.3186570764    1.3260248886
H        2.2487613691   -0.5808100980    2.2450771459
14   

C       -1.6792597062   -0.3261073912    0.2999461367
C        0.4597158670   -0.5986504840    0.3087769703
C        1.8439117054   -1.2027690333    0.3335417871
C        0.2068037792    0.9306732103    0.1116478431
N        1.0998398489    1.7223309469   -2.2745828982
N       -1.2627888262    0.9077246096    0.1414751541
N       -0.6637850185   -1.2551429682    0.4199106075
N        0.6984763627    1.3712606674   -1.1991097749
N        2.5802614216   -1.0076679452    1.4574601454
O        2.4276607468   -1.5083341479   -0.6888912906
H       -2.7329979003   -0.5926067038    0.3397954767
H        0.6380836881    1.5243284188    0.9272309139
H        3.5334709308   -1.3595437051    1.4000554298
H        2.1394539994   -0.8985683024    2.3649208744
14   

C       -1.6502207787   -0.3073646694    0.4355200419
C        0.4856122177   -0.5627934452    0.3410906135
C        1.8849345913   -1.1207718136    0.3602427515
C        0.2110497949    0.9472073669    0.0661652440
N        1.0084728732    1.6141846001   -2.3905001559
N       -1.2557367734    0.9141667231    0.1650289444
N       -0.6195493353   -1.2179025442    0.5747326973
N        0.6464113174    1.3197826875   -1.2848142646
N        2.5459333391   -1.1279410189    1.5393450526
O        2.5486540856   -1.1769942438   -0.6585066926
H       -2.6980401478   -0.5775241447    0.5452999739
H        0.6723749359    1.5874513837    0.8285118734
H        3.5174084228   -1.4248623826    1.4855498512
H        2.0473331076   -1.1798229594    2.4219142372
14   

C       -1.6191509599   -0.2700657872    0.5157721051
C        0.5117357388   -0.5169950385    0.3501013812
C        1.9224868327   -1.0388321313    0.3794549617
C        0.2160623447    0.9676361074   -0.0085262956
N        0.9278563638    1.5111985922   -2.5209354731
N       -1.2463189686    0.9312674303    0.1440295529
N       -0.5749633357   -1.1610790973    0.6817993956
N        0.6018193766    1.2708819538   -1.3914878329
N        2.4964020544   -1.2534288673    1.5800398381
O        2.6551296718   -0.9076356865   -0.5843373980
H       -2.6598231859   -0.5384978348    0.6828277160
H        0.6977112568    1.6540650155    0.6992788347
H        3.4776368940   -1.5194141827    1.5573616218
H        1.9349152558   -1.4326464832    2.4065890223
14   

C       -1.5893280317   -0.2583761474    0.5695778787
C        0.5419548465   -0.4705212327    0.3761538444
C        1.9677113205   -0.9442189985    0.4209996901
C        0.2114892658    0.9814541624   -0.0582800305
N        0.8663334571    1.4236703404   -2.6056725277
N       -1.2473260705    0.9260633000    0.1224843885
N       -0.5239307353   -1.1177096784    0.7661776560
N        0.5646617478    1.2265709727   -1.4613836272
N        2.4545427461   -1.3685678446    1.6010429526
O        2.7566356147   -0.6488665004   -0.4587576924
H       -2.6212353386   -0.5363178781    0.7717904274
H        0.6916414631    1.7130234373    0.6040567892
H        3.4422970325   -1.6084078408    1.6195125593
H        1.8351174614   -1.6639028070    2.3493894080
14   

C       -1.7186287808   -0.3034197514    0.1110874597
C        0.3696438190   -0.7438078203   -0.1461933379
C        1.7067045497   -1.3940819814   -0.3581411197
C        0.2963067926    0.7348939343    0.3039455367
N        1.2688038432    2.3991847723   -1.5393888801
N       -1.1666955825    0.8475409279    0.4112214625
N       -0.8121875667   -1.2991183235   -0.2041322271
N        0.8242805267    1.6527616933   -0.7122221757
N        1.8863852030   -2.6263303012    0.1450787747
O        2.6767892939   -0.7537397773   -0.7226886401
H       -2.7950081429   -0.4595574475    0.1153211906
H        0.8033348989    0.8797406560    1.2665889508
H        2.8150769503   -3.0283307109    0.0499648237
H        1.0973239938   -3.1954937192    0.4362083318
14   

C       -1.7060297286   -0.2980775882    0.1118910750
C        0.3901938733   -0.7301349238   -0.0835396648
C        1.7393819386   -1.3651612835   -0.2542185729
C        0.2961868070    0.7704192003    0.2705846787
N        1.2762687973    2.3382934323   -1.6516193880
N       -1.1693242811    0.8739871133    0.3514811218
N       -0.7855160578   -1.2999202633   -0.1361459201
N        0.8283330897    1.6337004366   -0.7904006926
N        1.8506531664   -2.6666299661    0.0501410765
O        2.7390144512   -0.7063651751   -0.4798050013
H       -2.7807662495   -0.4652309402    0.1126724980
H        0.7885535053    0.9785804377    1.2293815213
H        2.7751983050   -3.0822808268   -0.0226521964
H        1.0297436733   -3.2367936181    0.2309100811
14   

C       -1.7037693026   -0.2952420800    0.1266061634
C        0.3984774884   -0.7219934193   -0.0024243345
C        1.7559785486   -1.3451779884   -0.1433545785
C        0.2885924185    0.7959980554    0.2512724117
N        1.2894945748    2.2532895656   -1.7458115329
N       -1.1787461024    0.8931741434    0.3028932113
N       -0.7726584432   -1.3022317065   -0.0513917361
N        0.8324787572    1.5969639033   -0.8518871453
N        1.8288888149   -2.6803349572   -0.0529481647
O        2.7696685978   -0.6783297584   -0.2524396589
H       -2.7772045873   -0.4705349920    0.1230958215
H        0.7638077150    1.0674956919    1.2030034936
H        2.7500948076   -3.1036752104   -0.1226665469
H        0.9914001684   -3.2483624308    0.0357102382
14   

C       -1.7056260702   -0.3041874282    0.1203646833
C        0.4025670370   -0.7196837734    0.0677136265
C        1.7671851627   -1.3332383370   -0.0468988937
C        0.2749303119    0.8107605644    0.2196947955
N        1.3112010467    2.1516888910   -1.8399032524
N       -1.1938673487    0.8975332137    0.2342005069
N       -0.7631508356   -1.3111590227    0.0171806818
N        0.8387637441    1.5463643746   -0.9184277164
N        1.8233543802   -2.6665452237   -0.1770542315
O        2.7855459655   -0.6647850560   -0.0503956265
H       -2.7773467047   -0.4892889531    0.1077376463
H        0.7263563803    1.1454949275    1.1629615476
H        2.7434769321   -3.0913026964   -0.2520054827
H        0.9787552165   -3.2310636494   -0.1715060320
