64

C      0.64407   -4.20249   -2.68357
C      2.28589   -5.61317   -1.59763
C     -1.47610   -3.07900    3.57006
C     -0.21109   -4.37315   -1.59908
C      1.42453   -5.76350   -0.50897
C     -1.44134   -4.21412    2.75424
C      1.92100   -4.80084   -2.68853
C     -0.78739   -1.92302    3.20331
C      0.17508   -5.13543   -0.49032
C     -0.02668   -1.97491    2.00894
C     -0.70694   -4.14066    1.55991
C     -0.03648    0.34610    3.64695
C      1.72375    0.45524   -0.24877
C      2.70388   -1.76758    0.34073
C      4.26894   -4.57582   -3.58671
C      2.80810   -3.34856   -4.55423
C      2.33099    0.27421   -1.64558
C      3.26128   -1.82687   -1.08036
C      5.13330   -3.48498   -5.90486
C      5.20702   -2.14805   -4.31551
C      1.12213    0.04075    2.69653
C      1.41526   -0.92456    0.33909
C      4.35273   -3.39804   -4.58291
C      2.31735   -0.46341    3.53345
C     -1.95097   -0.51935    4.89356
N     -0.00815   -3.05147    1.22111
N     -0.88921   -0.69891    3.90826
N      2.80130   -4.58102   -3.74099
N      0.70284   -0.86573    1.62578
N     -0.68875   -5.20213    0.64713
O     -0.13302    1.44938    4.18374
O      3.51226   -0.52620   -1.62252
O      5.85315   -2.25885   -5.61416
H      0.32766   -3.59743   -3.52835
H      3.25387   -6.10605   -1.59022
H     -2.06773   -3.09869    4.47935
H     -1.18389   -3.89047   -1.58912
H      1.74286   -6.35132    0.34928
H     -1.99509   -5.10909    3.02135
H      2.44555    0.99912    0.37075
H      0.81249    1.06088   -0.31806
H      2.48347   -2.78035    0.68672
H      3.45504   -1.32312    1.00082
H      4.75833   -5.50787   -3.89389
H      4.60114   -4.31346   -2.57218
H      2.41199   -2.46962   -4.02713
H      2.30127   -3.44574   -5.52166
H      1.58599   -0.18394   -2.31739
H      2.62681    1.23668   -2.07083
H      4.21950   -2.35253   -1.10763
H      2.55421   -2.36733   -1.72383
H      5.81163   -4.34417   -5.98894
H      4.53387   -3.39890   -6.81967
H      4.65955   -1.20668   -4.19977
H      5.92902   -2.24904   -3.49509
H      1.37523    1.00329    2.25486
H      0.71874   -1.42684   -0.33891
H      2.11720   -1.46475    3.92731
H      2.49292    0.21679    4.37205
H      3.22681   -0.50581    2.93088
H     -1.77879   -1.15001    5.77304
H     -2.91980   -0.77600    4.45361
H     -1.94918    0.52516    5.20024
H     -0.80971   -6.11791    1.06156
