22   

C        1.8246770445   -0.2111311451    0.1153114672
C        0.5378397841   -0.4647941010    0.5831028284
C        2.9237381928   -0.4455083097    0.9442592984
C        0.3549534279   -0.9574280696    1.8759918630
C        2.7602446371   -0.9282505904    2.2537354472
C        1.4487266615   -1.1963591967    2.7261290370
C        3.9531985060   -1.1290921218    3.0993932345
C        5.2694877430   -0.8026800157    2.8750549637
C        1.1969513873   -1.7573588923    4.1057023538
C        6.3746217888   -1.6108833429    2.2243155503
H        1.9730682828    0.1701440957   -0.8884432820
H       -0.3192688336   -0.2827223587   -0.0552026968
H        3.9188761757   -0.2390730401    0.5685832481
H       -0.6527603001   -1.1569265851    2.2214980416
H        3.7270997766   -1.2984730856    4.1443060886
H        5.7061062862   -0.3689961278    3.7685153278
H        1.7813664921   -2.6708175680    4.2536442910
H        1.4753233399   -1.0232002841    4.8676700644
H        0.1405465587   -2.0081997298    4.2400956227
H        7.1801498935   -1.8052904326    2.9389719077
H        5.9815374566   -2.5686659200    1.8700500075
H        6.7839861648   -1.0630563047    1.3706525067
22   

C        1.9192853484   -0.2843301168    0.1163342924
C        0.6178663946   -0.5043969124    0.5596412909
C        2.9928352349   -0.4830733290    0.9869508230
C        0.3948360586   -0.9273569136    1.8705784256
C        2.7888643338   -0.8920198415    2.3165916628
C        1.4621424443   -1.1261650100    2.7635254137
C        3.9509288606   -1.0579426601    3.2115149556
C        5.2683485942   -0.7942056483    2.9670551580
C        1.1685444764   -1.6283927194    4.1573865682
C        6.2419611261   -1.5944965357    2.1295795955
H        2.0988040856    0.0439224544   -0.9009771303
H       -0.2193251426   -0.3515355429   -0.1118989053
H        3.9979495200   -0.3001468751    0.6268842297
H       -0.6234010408   -1.1063690872    2.1958501385
H        3.7006537192   -1.1362962701    4.2619212950
H        5.7841667671   -0.4455781178    3.8554059882
H        1.7631193489   -2.5228003874    4.3685889094
H        1.4045409648   -0.8555089899    4.8947359146
H        0.1129249518   -1.8958909627    4.2629527772
H        7.0966590123   -1.9098045079    2.7356559754
H        5.7502160242   -2.4852050286    1.7264428926
H        6.6050556507   -0.9864568481    1.2959280695
22   

C        1.9925613213   -0.3592680310    0.1195948893
C        0.6818421546   -0.5519290115    0.5466216859
C        3.0472531394   -0.5094592752    1.0223152013
C        0.4305653062   -0.8973303301    1.8746566988
C        2.8154364435   -0.8377613234    2.3709119676
C        1.4781706663   -1.0421624560    2.8006755745
C        3.9496860461   -0.9540397934    3.3096488035
C        5.2718480682   -0.8033437466    3.0405424708
C        1.1551535244   -1.4799869694    4.2096395772
C        6.1010109956   -1.6096942927    2.0681300118
H        2.1940743657   -0.0881623504   -0.9103447286
H       -0.1404201931   -0.4386423919   -0.1507166029
H        4.0563517663   -0.3403479701    0.6690099755
H       -0.5942816114   -1.0610451869    2.1869097205
H        3.6905094158   -0.9454484867    4.3610284491
H        5.8580022365   -0.5185953953    3.9076682615
H        1.7646446881   -2.3471120003    4.4834904511
H        1.3493824110   -0.6652928398    4.9130842660
H        0.1043646449   -1.7720589472    4.2970669396
H        6.9732950939   -2.0328613265    2.5752835211
H        5.5078204488   -2.4294294220    1.6508297565
H        6.4456334022   -0.9709367896    1.2497036028
22   

C        2.0316538113   -0.4084048397    0.1278757831
C        0.7164611655   -0.5865201745    0.5450380318
C        3.0750750630   -0.5181344217    1.0491277699
C        0.4493091538   -0.8738016614    1.8831717271
C        2.8291929341   -0.7905430184    2.4091641409
C        1.4850397586   -0.9744716664    2.8282956740
C        3.9408906428   -0.8659347598    3.3788418925
C        5.2662531168   -0.8478981216    3.1106868506
C        1.1434211083   -1.3634890046    4.2472633812
C        5.9805488523   -1.6240643588    2.0322286914
H        2.2456773196   -0.1771788971   -0.9092454220
H       -0.0967158673   -0.5060936592   -0.1673571500
H        4.0825730848   -0.3471497341    0.6956315189
H       -0.5789595634   -1.0290141451    2.1883481797
H        3.6780739510   -0.7967457187    4.4272205538
H        5.8951535998   -0.6372900698    3.9689182889
H        1.7630570609   -2.2079980284    4.5657325633
H        1.3086036869   -0.5190304408    4.9222177254
H        0.0972347303   -1.6741053741    4.3258906019
H        6.8489307037   -2.1386422491    2.4544110375
H        5.3151446393   -2.3739242086    1.5928893212
H        6.3260625554   -0.9467634524    1.2457458742
22   

C        2.0519213190   -0.4381193151    0.1345078692
C        0.7367771211   -0.6097311960    0.5520129926
C        3.0928266032   -0.5143468027    1.0617390577
C        0.4670548056   -0.8533634739    1.8976465228
C        2.8468140678   -0.7478440385    2.4304152912
C        1.4999750130   -0.9179439896    2.8491260782
C        3.9458931223   -0.7887228665    3.4177773021
C        5.2640742623   -0.9128678013    3.1642209043
C        1.1531533407   -1.2707669703    4.2764185868
C        5.8994606687   -1.6321136966    2.0022226780
H        2.2681282380   -0.2348301384   -0.9080091531
H       -0.0741503422   -0.5564635226   -0.1654775919
H        4.0946408227   -0.3336279779    0.7002240791
H       -0.5614433507   -1.0046292465    2.2039287013
H        3.6850045802   -0.6753132193    4.4628758782
H        5.9151862750   -0.7783985882    4.0211522439
H        1.7831639361   -2.0958656004    4.6242711474
H        1.2986861604   -0.4046510844    4.9278498779
H        0.1119058402   -1.5975352721    4.3554835748
H        6.7625861013   -2.2071614534    2.3506792156
H        5.1924141005   -2.3287730591    1.5411264535
H        6.2460034398   -0.9133402379    1.2539112917
22   

C        2.0598637192   -0.4639210137    0.1376575036
C        0.7453261930   -0.6218995443    0.5603479872
C        3.1017811830   -0.5189683096    1.0650813343
C        0.4771878357   -0.8279060905    1.9120621942
C        2.8595696995   -0.7188581567    2.4407434345
C        1.5110449042   -0.8695624343    2.8639431643
C        3.9528406501   -0.7386497734    3.4356488000
C        5.2544893322   -0.9988925713    3.2117394484
C        1.1626724394   -1.1895761451    4.2987480758
C        5.8636128270   -1.6272916029    1.9867068803
H        2.2750944346   -0.2855292546   -0.9096172681
H       -0.0661986643   -0.5860194366   -0.1575474468
H        4.0987764510   -0.3383107653    0.6927589349
H       -0.5512773110   -0.9692457876    2.2230753415
H        3.6930848247   -0.5978963600    4.4777086701
H        5.9036341028   -0.9423085252    4.0787820321
H        1.7940328823   -2.0047643088    4.6670603102
H        1.3039848360   -0.3080973929    4.9300566715
H        0.1225574453   -1.5186009205    4.3833559348
H        6.7325068731   -2.2260860569    2.2757461082
H        5.1505882738   -2.2931476286    1.4909847211
H        6.2014925010   -0.8552356943    1.2892313780
22   

C        2.0545743308   -0.4894865646    0.1373045530
C        0.7407514835   -0.6231432304    0.5690296266
C        3.1002762841   -0.5334672986    1.0609851376
C        0.4771358448   -0.7923229384    1.9263375777
C        2.8641086041   -0.6975869135    2.4429809536
C        1.5148095407   -0.8213080727    2.8746098110
C        3.9580651193   -0.7077045078    3.4381311429
C        5.2327158947   -1.0947516037    3.2469790540
C        1.1677068368   -1.1085845185    4.3167952912
C        5.8574555298   -1.6106930191    1.9790487789
H        2.2666491586   -0.3376760776   -0.9147946331
H       -0.0735757008   -0.5967872208   -0.1460996525
H        4.0940002572   -0.3667487079    0.6755044168
H       -0.5512492976   -0.9163120666    2.2448526860
H        3.6989720826   -0.5511274252    4.4780317478
H        5.8640201331   -1.1150980459    4.1286967980
H        1.7928450838   -1.9217293340    4.7000727401
H        1.3177923230   -0.2157077548    4.9296787807
H        0.1253778275   -1.4279428965    4.4107223635
H        6.7461062341   -2.2001001713    2.2239084488
H        5.1663699387   -2.2646947218    1.4387572379
H        6.1711212157   -0.7794044949    1.3408539073
22   

C        2.0647440476   -0.4160978683    0.1452143362
C        0.7509646474   -0.4540378202    0.5970742492
C        3.0967573546   -0.8806131421    0.9624723046
C        0.4734350551   -0.9634906052    1.8639224291
C        2.8446591691   -1.4084809087    2.2465575105
C        1.4966749056   -1.4517954508    2.6953136299
C        3.9260596001   -1.9396228117    3.1032682177
C        5.2378426250   -1.6446831955    3.0370857067
C        1.1416135824   -1.9035445848    4.0925574029
C        5.8809450618   -0.4963587654    2.3060412440
H        2.2866477005   -0.0377432850   -0.8460167058
H       -0.0526759080   -0.0885252716   -0.0320490829
H        4.0918552627   -0.8773969279    0.5441040761
H       -0.5536354799   -0.9678394970    2.2096874501
H        3.6496144988   -2.5874473314    3.9261150205
H        5.8745959474   -2.1606160645    3.7475162513
H        1.2471706946   -2.9883338722    4.1798130992
H        1.7942443084   -1.4154130951    4.8237229971
H        0.1116015763   -1.6301877527    4.3407632947
H        6.2024861441   -0.8105235238    1.3087366213
H        5.1952257232    0.3528617798    2.2277939356
H        6.7648512319   -0.1606642283    2.8565814961
22   

C        2.0569937406   -0.4338526668    0.1325537721
C        0.7422671928   -0.4565873507    0.5845975561
C        3.0867054002   -0.8822757142    0.9618078133
C        0.4616219906   -0.9319451727    1.8644848100
C        2.8291081864   -1.3790193285    2.2561006250
C        1.4826445178   -1.4025418315    2.7085599931
C        3.9150337739   -1.8907034038    3.1183492119
C        5.2400121978   -1.6998802725    2.9590494615
C        1.1272661100   -1.8238722329    4.1150159380
C        5.9150569331   -0.5078940355    2.3307756808
H        2.2811989414   -0.0782515586   -0.8665426506
H       -0.0598147908   -0.1045280347   -0.0541141515
H        4.0872220583   -0.8853279768    0.5544530189
H       -0.5657248955   -0.9247079630    2.2094555081
H        3.6359621393   -2.5170521451    3.9567759146
H        5.8741434521   -2.2791989665    3.6213397766
H        1.2361046055   -2.9062280361    4.2261957241
H        1.7782242851   -1.3182072838    4.8356110898
H        0.0959081943   -1.5489623363    4.3557457427
H        6.2485622753   -0.7503470495    1.3175187903
H        5.2377443551    0.3511846427    2.2977445771
H        6.7914393203   -0.2253319540    2.9217083003
22   

C        2.0351838106   -0.4581890276    0.1088374596
C        0.7215489938   -0.4758312842    0.5665763605
C        3.0707021740   -0.8722353921    0.9489230126
C        0.4480334533   -0.9080102683    1.8638443018
C        2.8177360668   -1.3290617652    2.2572417952
C        1.4752990489   -1.3417796688    2.7198270981
C        3.9198344465   -1.7996901563    3.1208236859
C        5.2469771090   -1.7224261708    2.8729396210
C        1.1295860011   -1.7259902494    4.1391124464
C        5.9987333743   -0.5274471151    2.3412925180
H        2.2538627455   -0.1308062441   -0.9010601443
H       -0.0853743242   -0.1516759436   -0.0807497739
H        4.0762815656   -0.8708959484    0.5513746673
H       -0.5782754862   -0.8974215641    2.2118951101
H        3.6425714549   -2.3884358341    3.9865353626
H        5.8585199289   -2.3648798366    3.4972006692
H        1.2601996214   -2.8021643251    4.2831718456
H        1.7717677579   -1.1860678262    4.8424252232
H        0.0928492229   -1.4655865103    4.3726448514
H        6.3312717062   -0.7162213932    1.3163756124
H        5.3632645361    0.3636741428    2.3537180654
H        6.8783654618   -0.3323757903    2.9620263104
22   

C        1.9949086006   -0.4841987404    0.0797441467
C        0.6846616938   -0.4949700048    0.5494385413
C        3.0400761081   -0.8606290048    0.9257787816
C        0.4244325867   -0.8792824999    1.8650021696
C        2.7983672414   -1.2711830044    2.2498843775
C        1.4619775446   -1.2723232488    2.7281122865
C        3.9214517437   -1.6985684586    3.1090830210
C        5.2419759419   -1.7308743493    2.7963906330
C        1.1320198805   -1.6162536385    4.1612988685
C        6.1077973731   -0.5631689280    2.3833631955
H        2.2032399556   -0.1891995271   -0.9422402646
H       -0.1301390148   -0.2014984926   -0.1026364653
H        4.0485241261   -0.8574974351    0.5324075938
H       -0.5992548031   -0.8650506434    2.2206386247
H        3.6465807616   -2.2432558027    4.0037501549
H        5.8072043673   -2.4440580022    3.3866840213
H        1.2881965146   -2.6839351914    4.3399864343
H        1.7657086077   -1.0392275848    4.8423825643
H        0.0903330318   -1.3735273737    4.3916928165
H        6.4477037234   -0.6947955524    1.3519961770
H        5.5436751068    0.3722011997    2.4527888056
H        6.9831991506   -0.4921795611    3.0358723190
22   

C        1.9197513173   -0.5457891432    0.0374734784
C        0.6192286449   -0.5406888770    0.5347204059
C        2.9854175212   -0.8629287783    0.8823145900
C        0.3893863587   -0.8477962129    1.8763804989
C        2.7739010709   -1.1922928157    2.2327078900
C        1.4484717618   -1.1761475136    2.7404099498
C        3.9266234170   -1.5531267161    3.0810851179
C        5.2385905003   -1.6996196582    2.7315325726
C        1.1492766571   -1.4559573174    4.1941905610
C        6.2506737079   -0.6176219663    2.4240520013
H        2.1045529658   -0.3077074060   -1.0037111964
H       -0.2118666795   -0.2954002315   -0.1166904197
H        3.9897082458   -0.8688141641    0.4764446740
H       -0.6276082298   -0.8268873011    2.2504644804
H        3.6625953995   -2.0193144848    4.0218744194
H        5.7288219442   -2.4747033778    3.3109261026
H        1.3492601405   -2.5063156313    4.4254636172
H        1.7684495106   -0.8206214442    4.8353300366
H        0.1011164992   -1.2446027945    4.4259691790
H        6.6067234879   -0.7208988630    1.3949310524
H        5.7945518017    0.3703737659    2.5402938648
H        7.1056354903   -0.6912351855    3.1029341974
22   

C        1.8225080955   -0.6038215332   -0.0003447167
C        0.5373262185   -0.5835951911    0.5354003720
C        2.9155893851   -0.8704685678    0.8267559988
C        0.3503170775   -0.8242680501    1.8973116379
C        2.7473863716   -1.1288996072    2.1976765631
C        1.4379301109   -1.0978188614    2.7449128963
C        3.9329503842   -1.4362005917    3.0214303385
C        5.2415866369   -1.6451174488    2.6562640925
C        1.1829338518   -1.3222944729    4.2166195979
C        6.3814341860   -0.6558966561    2.5141390567
H        1.9741338474   -0.4161826722   -1.0570923820
H       -0.3152199526   -0.3792458748   -0.1022716593
H        3.9093320710   -0.8877043207    0.3952172253
H       -0.6557483862   -0.7968931403    2.2994855900
H        3.6963707805   -1.8237984776    4.0040056508
H        5.6506544999   -2.4933206214    3.1949692073
H        1.4259129351   -2.3539437433    4.4881579311
H        1.7938770304   -0.6381528637    4.8137254277
H        0.1331363622   -1.1398888915    4.4648686596
H        6.7864749435   -0.6971505587    1.4989183510
H        6.0241077769    0.3600775331    2.7077365547
H        7.1815840587   -0.8872917088    3.2237999857
