21   
Generated by ForceBalance from scan.xyz: Frame 1 of 11
C        0.3847127850    2.1801486386   -0.6836250916
C       -0.3448866805    3.2237339595   -1.2512260781
C       -0.2650720831    1.0965045660   -0.0771311091
C       -2.6786334150    4.2629034041   -1.3020621228
C       -1.7427574263    3.1271478802   -1.2403640058
C       -2.4265902993    2.0390259224   -0.6244894719
C       -1.6628665904    0.9721373716   -0.0962157612
C       -4.0027259489    4.0979825662   -0.9448632503
C       -4.5365604421    2.7184172170   -0.9420996076
C       -3.5468165156   -0.2508342055    0.7972827913
N       -3.6604256844    1.8228914668   -1.2623679528
O       -2.1620453612   -0.1820521071    0.4171045400
Cl      -6.2451310445    2.4183879394   -1.1609953141
Br      -5.1150600511    5.6103057615   -0.6023988458
H        1.4703835791    2.2193044558   -0.6717983508
H        0.1478074389    4.1069190269   -1.6484086334
H        0.3068494219    0.2940373271    0.3802621894
H       -2.2971929124    5.2638256232   -1.4829037958
H       -3.6317467729   -1.1523913723    1.4062525020
H       -4.1956400225   -0.3160027182   -0.0764446554
H       -3.8250350963    0.6235251104    1.3959700743
21   
Generated by ForceBalance from scan.xyz: Frame 2 of 11
C        0.3574723088    2.1983471627   -0.6721444643
C       -0.3782964609    3.2668331612   -1.1670689378
C       -0.2827316615    1.0735110633   -0.1236769518
C       -2.6746053620    4.3158932891   -1.2643440108
C       -1.7828822618    3.1815312100   -1.1406755893
C       -2.4546887355    2.0452797309   -0.5925112264
C       -1.6745952694    0.9543628030   -0.1226183332
C       -4.0162339062    4.1776056492   -0.9785777626
C       -4.5523662394    2.8250269829   -0.9248850300
C       -3.5215406513   -0.2831047842    0.8389085315
N       -3.7263915081    1.8427448331   -1.1126990174
O       -2.1755687705   -0.2228975176    0.3342604254
Cl      -6.2700277481    2.5419897375   -1.1149529674
Br      -5.1252664149    5.7165851516   -0.7820783667
H        1.4432274008    2.2383763441   -0.6739303997
H        0.1090316291    4.1671634682   -1.5310083029
H        0.2970090052    0.2464243301    0.2759257838
H       -2.2675323828    5.3004620286   -1.4757006120
H       -3.5631451715   -1.1981857043    1.4325841061
H       -4.2473926388   -0.3189500859    0.0265294369
H       -3.7325930868    0.5795217091    1.4798580117
21   
Generated by ForceBalance from scan.xyz: Frame 3 of 11
C        0.3345607227    2.1932207235   -0.6565025584
C       -0.3940183414    3.2835310663   -1.1011500257
C       -0.3129774768    1.0429504301   -0.1645274159
C       -2.6578769128    4.3486089745   -1.2739301739
C       -1.8042490796    3.2136465652   -1.0813051950
C       -2.4791741945    2.0483934189   -0.5968089269
C       -1.7011835773    0.9362214936   -0.1603843622
C       -4.0152760747    4.2350669793   -1.0731333474
C       -4.5628965124    2.9063796544   -0.9542129030
C       -3.5169483369   -0.3000632561    0.8649269105
N       -3.7831576426    1.8681850174   -1.0001951140
O       -2.2184761985   -0.2535464175    0.2450563229
Cl      -6.2891353876    2.6434520664   -1.1093777808
Br      -5.1136545094    5.7936403132   -1.0544591620
H        1.4205803662    2.2271060541   -0.6571720361
H        0.0993940776    4.1923695076   -1.4345849296
H        0.2623936749    0.1952529195    0.1957538226
H       -2.2224692782    5.3164659974   -1.5046706079
H       -3.5239933285   -1.2244122244    1.4461144370
H       -4.3096907737   -0.3101144493    0.1168864890
H       -3.6579576611    0.5547687088    1.5342855860
21   
Generated by ForceBalance from scan.xyz: Frame 4 of 11
C        0.3168059718    2.1991115853   -0.6410839017
C       -0.4158029815    3.3046547961   -1.0314633680
C       -0.3259807897    1.0247786930   -0.1975960306
C       -2.6679416371    4.3606640075   -1.2469101423
C       -1.8280541917    3.2340086083   -1.0038281258
C       -2.4992453754    2.0457866930   -0.5737746935
C       -1.7118894630    0.9199357804   -0.1758799877
C       -4.0333286834    4.2531784273   -1.1125738247
C       -4.5869679962    2.9443978574   -0.9127171870
C       -3.4840279076   -0.3578851939    0.8867734590
N       -3.8322038519    1.8898853543   -0.8373380083
O       -2.2226483252   -0.2838937078    0.1961202142
Cl      -6.3199261811    2.6935631016   -1.0039993357
Br      -5.1261742815    5.8093882238   -1.2584900538
H        1.4027996538    2.2332959538   -0.6515522346
H        0.0729369686    4.2243516954   -1.3408663283
H        0.2530709308    0.1631724582    0.1210348981
H       -2.2210273185    5.3193077519   -1.4934646499
H       -3.4565494764   -1.3049561918    1.4298086574
H       -4.3180628354   -0.3404495102    0.1855393677
H       -3.5880344931    0.4690276095    1.5963459828
21   
Generated by ForceBalance from scan.xyz: Frame 5 of 11
C        0.3205040777    2.2030080532   -0.6348640188
C       -0.4046509096    3.3206861816   -0.9991693891
C       -0.3298106236    1.0161685440   -0.2354029597
C       -2.6357923299    4.3816343131   -1.2967300084
C       -1.8196238094    3.2597422053   -0.9895949314
C       -2.4945987092    2.0568503394   -0.6032437668
C       -1.7148960774    0.9193344554   -0.2187023135
C       -4.0055738155    4.2792034103   -1.2470595289
C       -4.5688805623    2.9933447243   -0.9734674262
C       -3.4636005113   -0.3727969149    0.8682287315
N       -3.8451404039    1.9360267841   -0.7554590596
O       -2.2355992073   -0.2906407886    0.1195593409
Cl      -6.3079198958    2.7631700334   -1.0297807651
Br      -5.0828089302    5.8180344892   -1.5742968547
H        1.4066543537    2.2334919451   -0.6371723471
H        0.0917333198    4.2431636256   -1.2877085195
H        0.2435055486    0.1430553448    0.0613131778
H       -2.1697652916    5.3285917708   -1.5525132412
H       -3.4211564888   -1.3364039903    1.3805812261
H       -4.3297464709   -0.3253520481    0.2085561330
H       -3.5246583717    0.4331808208    1.6059801687
21   
Generated by ForceBalance from scan.xyz: Frame 6 of 11
C        0.3138960751    2.2072474171   -0.6199341787
C       -0.4126314491    3.3346002558   -0.9489101950
C       -0.3350095072    1.0079722061   -0.2574985707
C       -2.6401075778    4.3812878397   -1.2962697990
C       -1.8277610964    3.2729189190   -0.9380539806
C       -2.5017512507    2.0583520697   -0.5876629438
C       -1.7199318845    0.9131458415   -0.2268468661
C       -4.0093443180    4.2650909794   -1.3094592976
C       -4.5773205809    3.0035970948   -0.9505498023
C       -3.4439004792   -0.4149941503    0.8652632712
N       -3.8618218356    1.9743339336   -0.6089854166
O       -2.2355712297   -0.3053684407    0.0883046709
Cl      -6.3195234880    2.7895490676   -0.9487400169
Br      -5.0803448493    5.7641424896   -1.8005461424
H        1.4000419855    2.2370561004   -0.6280146480
H        0.0825839553    4.2622157650   -1.2224859408
H        0.2392832400    0.1259871428    0.0094997167
H       -2.1709827956    5.3225937453   -1.5668383378
H       -3.3883848747   -1.3977888662    1.3385328111
H       -4.3272977467   -0.3429421614    0.2310967818
H       -3.4862495514    0.3625532335    1.6336436267
21   
Generated by ForceBalance from scan.xyz: Frame 7 of 11
C        0.2663948034    2.2439249660   -0.6806074704
C       -0.5108105734    3.2396132436   -1.2399678374
C       -0.3259650573    1.1415616274   -0.0293111722
C       -2.7898744797    4.1069303831   -1.7285466003
C       -1.9198805513    3.1532100644   -1.1332326143
C       -2.5379194615    2.0504025770   -0.4601287679
C       -1.7045356014    1.0278133115    0.0971532035
C       -4.1529385396    3.9656269740   -1.6191466481
C       -4.6547986026    2.8939370151   -0.8151289153
C       -3.4071459509   -0.6751173490    0.4468296397
N       -3.8779054562    2.0495757168   -0.2058153771
O       -2.1611327214   -0.0440274999    0.7981235372
Cl      -6.3784958090    2.7410456881   -0.5240067449
Br      -5.3043726307    5.2036805983   -2.5005456162
H        1.3494887277    2.2934584680   -0.7521348120
H       -0.0605030660    4.0802221531   -1.7606726661
H        0.2885356431    0.3551491900    0.3984226180
H       -2.3715768415    4.9383989929   -2.2881725189
H       -3.3240713851   -1.6967655420    0.8238210285
H       -3.5424946000   -0.6935144308   -0.6388766780
H       -4.2514077957   -0.1624339282    0.9072183659
21   
Generated by ForceBalance from scan.xyz: Frame 8 of 11
C        0.2785985405    2.2492428509   -0.6776248595
C       -0.4987349130    3.2674291945   -1.1974443855
C       -0.3154662068    1.1280008900   -0.0618409048
C       -2.7946186151    4.1032575507   -1.7097643940
C       -1.9057433867    3.1819558798   -1.0813937210
C       -2.5269928560    2.0611145906   -0.4451000618
C       -1.6940451859    1.0247843394    0.0821044045
C       -4.1559656966    3.9136118700   -1.6408147000
C       -4.6470080324    2.8854938796   -0.7683552566
C       -3.4239500195   -0.6462055413    0.4196659048
N       -3.8419591082    2.1363147487   -0.0768974193
O       -2.1536941491   -0.0598646563    0.7609955740
Cl      -6.3615092432    2.7638027704   -0.4222882573
Br      -5.3228196933    5.0448513974   -2.6389021020
H        1.3612014891    2.2936004515   -0.7592825963
H       -0.0494459496    4.1171394192   -1.7039747743
H        0.2978013154    0.3237972626    0.3335837456
H       -2.3906784960    4.9315113679   -2.2845410788
H       -3.3606083475   -1.6822454331    0.7591215465
H       -3.5842168991   -0.6240645005   -0.6628784428
H       -4.2427879628   -0.1274521323    0.9177683084
21   
Generated by ForceBalance from scan.xyz: Frame 9 of 11
C        0.2983360594    2.2866562310   -0.6951832487
C       -0.4931436288    3.3182570634   -1.1715622273
C       -0.2805597921    1.1401492276   -0.1163334620
C       -2.8246859548    4.0799958347   -1.7017828014
C       -1.8941852350    3.2110857084   -1.0393085493
C       -2.5036290618    2.0644875013   -0.4430700224
C       -1.6583972832    1.0258598493    0.0500039244
C       -4.1760751846    3.8135859074   -1.6647472431
C       -4.6407921606    2.8212082935   -0.7245938215
C       -3.4050797106   -0.6160048225    0.4232921325
N       -3.7864154467    2.2035780244    0.0320314754
O       -2.0981372158   -0.0817774155    0.7038722292
Cl      -6.3417659297    2.7113952658   -0.3204306914
Br      -5.3745114966    4.8026618221   -2.7713518189
H        1.3794374154    2.3405305031   -0.7896347126
H       -0.0581507843    4.1832674144   -1.6643528210
H        0.3428461899    0.3266326988    0.2428374732
H       -2.4539906134    4.9080041085   -2.2989555428
H       -3.3603146437   -1.6606018292    0.7379989968
H       -3.6229495016   -0.5653034746   -0.6484624283
H       -4.1766971899   -0.0806676096    0.9763804345
21   
Generated by ForceBalance from scan.xyz: Frame 10 of 11
C        0.3159562617    2.2705021294   -0.6584277255
C       -0.4551516625    3.3450369280   -1.0811513844
C       -0.2870465973    1.1072865791   -0.1487728218
C       -2.7965148256    4.0970074094   -1.6642338356
C       -1.8542184435    3.2584474150   -0.9532961251
C       -2.4861918859    2.0866758453   -0.4342031008
C       -1.6704577456    1.0162607796    0.0202776340
C       -4.1378903227    3.7785821665   -1.6747555518
C       -4.6087104557    2.8325922402   -0.6729628366
C       -3.4800900053   -0.5494281804    0.3826337914
N       -3.7302073453    2.3262869263    0.1363653568
O       -2.1321976405   -0.1086879180    0.6271085065
Cl      -6.3032663980    2.7711776033   -0.2366776677
Br      -5.3268970921    4.6476228937   -2.8865616371
H        1.3979161227    2.3071583207   -0.7506886930
H       -0.0004203517    4.2199568857   -1.5375446125
H        0.3189595740    0.2631333056    0.1674180135
H       -2.4321603106    4.9145306125   -2.2795487595
H       -3.4906792339   -1.6062156101    0.6562424468
H       -3.7354506426   -0.4428514723   -0.6769489152
H       -4.1938117901    0.0107273756    0.9870397685
21   
Generated by ForceBalance from scan.xyz: Frame 11 of 11
C        0.3590115683    2.2561955911   -0.6212432833
C       -0.3984169453    3.3776158529   -0.9546405733
C       -0.2605400684    1.0732965932   -0.1943892021
C       -2.7774071173    4.1110340501   -1.5291573317
C       -1.7891102306    3.2996423892   -0.7994999636
C       -2.4419961711    2.1065010594   -0.3730765585
C       -1.6478408635    0.9969363151    0.0009204875
C       -4.1055699854    3.7315615198   -1.5619453979
C       -4.5687074209    2.7936822734   -0.5177958897
C       -3.5047436314   -0.4928675254    0.4245295071
N       -3.6349648411    2.4248315425    0.2982565929
O       -2.1083764680   -0.1671218967    0.5285208681
Cl      -6.2480378243    2.7457761018   -0.0359934448
Br      -5.3055107264    4.4994565776   -2.8320947556
H        1.4399621564    2.2771882438   -0.7283784478
H        0.0645570381    4.2703671493   -1.3659729617
H        0.3326431599    0.1956001549    0.0464075529
H       -2.4407440643    4.9233667571   -2.1669834981
H       -3.5714005338   -1.5505803587    0.6846046565
H       -3.8585453410   -0.3446762533   -0.6017710196
H       -4.1050122963    0.1082744720    1.1077263887
