48

C      4.40768   -1.06119   -1.62182
C      4.56984   -2.68379    0.15789
C      2.93815   -0.68463    1.74336
C      1.74607   -0.32999   -0.32440
C      5.47924   -1.66510   -2.28009
C      5.63873   -3.29819   -0.49239
C      1.93496   -0.02077    2.44846
C      0.72985    0.32727    0.37068
C      8.40734   -2.64709    1.64428
C      7.78177   -0.73395    0.28724
C     -2.95109   -0.76786    1.06996
C     -4.03669    0.19432    3.01938
C      7.70011   -2.11826    2.72551
C      7.06060   -0.21168    1.36219
C     -4.09806   -0.52744    0.30878
C     -5.18172    0.44214    2.26014
C      3.94997   -1.54406   -0.38285
C      2.86326   -0.85211    0.34878
C      6.10285   -2.76553   -1.69368
C      0.83403    0.48017    1.75325
C      8.43237   -1.96046    0.42919
C     -2.93187   -0.40951    2.41747
C      7.02032   -0.90900    2.57076
C     -5.20242    0.07866    0.91066
O      7.24481   -3.34565   -2.27434
O     -0.19263    1.20420    2.37667
O      9.13612   -2.60200   -0.60134
O     -1.78334   -0.72685    3.15142
S      8.63155   -2.39098   -2.19305
S     -0.88706    0.56229    3.76362
Cl     6.09533   -0.25704    3.91758
Cl    -6.64403    0.38982   -0.04320
H      3.94955   -0.17640   -2.05511
H      4.21593   -3.09209    1.09991
H      3.80933   -1.04301    2.28274
H      1.65137   -0.46727   -1.39815
H      5.85585   -1.26579   -3.21740
H      6.13999   -4.15981   -0.06341
H      2.00990    0.11013    3.52346
H     -0.14276    0.72323   -0.14024
H      8.92371   -3.59859    1.72556
H      7.79509   -0.20989   -0.66154
H     -2.07414   -1.23509    0.63255
H     -4.00007    0.47040    4.06894
H      7.66606   -2.64857    3.67183
H      6.52621    0.72664    1.25530
H     -4.13155   -0.80292   -0.74046
H     -6.05172    0.90789    2.71180
