48

C      5.78846   -2.30663   -2.00352
C      5.21076   -4.54585   -1.31460
C      3.61220   -3.15002    0.84671
C      3.10733   -1.50495   -0.83963
C      6.89110   -2.80027   -2.69836
C      6.31369   -5.05136   -2.00274
C      2.64071   -2.60801    1.68882
C      2.12588   -0.95623   -0.01593
C      9.31756   -1.58789   -0.62491
C      8.39847   -3.61400    0.34291
C      1.11360   -1.49552    6.69097
C      1.21358    0.29239    5.04593
C      8.46985   -0.81685    0.17341
C      7.54071   -2.84484    1.12983
C      1.29875   -0.56789    7.71788
C      1.38933    1.22104    6.07533
C      4.95013   -3.16405   -1.27160
C      3.86815   -2.61184   -0.42541
C      7.16883   -4.16479   -2.65668
C      1.90083   -1.51121    1.24494
C      9.25645   -2.98035   -0.55671
C      1.07077   -1.05962    5.36547
C      7.56727   -1.45296    1.02785
C      1.43185    0.78587    7.40114
O      8.37318   -4.60255   -3.23735
O      0.94567   -0.86215    2.03900
O     10.08660   -3.66791   -1.45873
O      0.94063   -2.05864    4.39386
S      9.53042   -5.11394   -2.11973
S     -0.03442   -1.77156    3.05341
Cl     6.42998   -0.49938    1.96452
Cl     1.66058    1.95702    8.69024
H      5.62449   -1.23390   -1.96659
H      4.54510   -5.23330   -0.80009
H      4.21144   -3.98183    1.20606
H      3.26368   -1.08366   -1.82871
H      7.57917   -2.13435   -3.20888
H      6.53247   -6.11521   -2.00392
H      2.48217   -3.01398    2.68179
H      1.52728   -0.10934   -0.33790
H     10.00069   -1.12093   -1.32772
H      8.35559   -4.69607    0.39198
H      1.00045   -2.55329    6.90800
H      1.19873    0.61878    4.01194
H      8.49167    0.26642    0.11025
H      6.84253   -3.32580    1.80672
H      1.33132   -0.89272    8.75286
H      1.50341    2.27544    5.84482
