48

C      4.92148   -2.18807   -1.65929
C      5.24519   -3.62041    0.25163
C      2.45281   -2.74261    1.02878
C      3.11370   -0.57912    0.19545
C      5.96123   -2.83707   -2.32594
C      6.29674   -4.26606   -0.39505
C      1.33202   -2.18012    1.64252
C      2.00477    0.00073    0.80986
C      4.96997   -7.53325   -1.18312
C      4.06795   -5.75557   -2.57022
C     -3.99860   -1.70491    3.00981
C     -2.76999   -1.50763    0.92091
C      3.84909   -7.45598   -0.35375
C      2.94758   -5.67175   -1.74172
C     -5.19518   -1.46035    2.33217
C     -3.96470   -1.25912    0.24134
C      4.52516   -2.58544   -0.37146
C      3.36053   -1.95981    0.29598
C      6.62518   -3.89033   -1.69823
C      1.12148   -0.80436    1.53276
C      5.07705   -6.67115   -2.27470
C     -2.79828   -1.72756    2.29928
C      2.85297   -6.51829   -0.63557
C     -5.16627   -1.23706    0.95326
O      7.59523   -4.54865   -2.47264
O      0.00424   -0.14952    2.06723
O      6.20726   -6.69466   -3.10721
O     -1.60833   -2.02907    2.97041
S      7.65667   -6.22695   -2.37775
S     -0.68103   -0.71023    3.48805
Cl     1.45689   -6.40070    0.42700
Cl    -6.66892   -0.92625    0.09917
H      4.37492   -1.40106   -2.17159
H      4.98278   -3.92243    1.26137
H      2.59481   -3.81700    1.08925
H      3.81342    0.05577   -0.34111
H      6.23600   -2.56984   -3.34190
H      6.82382   -5.08084    0.08952
H      0.62712   -2.80783    2.17617
H      1.81877    1.06886    0.74841
H      5.76229   -8.24532   -0.97312
H      4.18273   -5.08999   -3.41887
H     -3.99204   -1.88171    4.08124
H     -1.82337   -1.53256    0.39113
H      3.75133   -8.11490    0.50308
H      2.16927   -4.94273   -1.94153
H     -6.13906   -1.44268    2.86747
H     -3.96312   -1.08563   -0.82998
