48

C      4.17618   -0.36296   -1.81593
C      4.85616   -2.03777   -0.22193
C      2.72136   -0.82894    1.56501
C      1.46208   -0.55614   -0.47399
C      5.33340   -0.59387   -2.55919
C      6.01550   -2.28762   -0.95782
C      1.56800   -0.59111    2.31412
C      0.30409   -0.30785    0.26239
C      8.69317   -4.48907   -4.12701
C      9.91859   -5.68096   -2.39782
C     -0.28358   -2.93709    4.83316
C     -2.55104   -2.15010    5.20886
C      9.01139   -5.49842   -5.03966
C     10.22799   -6.69343   -3.30808
C     -0.09710   -3.07003    6.21152
C     -2.36446   -2.27340    6.58699
C      3.91693   -1.07582   -0.63200
C      2.69023   -0.81975    0.15986
C      6.24708   -1.55392   -2.12265
C      0.36783   -0.32694    1.65579
C      9.15736   -4.58711   -2.81356
C     -1.50833   -2.48404    4.34336
C      9.77471   -6.59143   -4.62519
C     -1.13930   -2.73352    7.07728
O      7.36076   -1.76922   -2.94640
O     -0.74376   -0.02982    2.45734
O      8.84813   -3.64298   -1.82739
O     -1.65040   -2.43680    2.95163
S      8.86175   -2.01053   -2.23269
S     -2.11940   -0.97392    2.26317
Cl    10.16914   -7.85860   -5.77595
Cl    -0.90831   -2.89070    8.81133
H      3.48465    0.40873   -2.14214
H      4.66321   -2.62944    0.66856
H      3.66189   -1.00087    2.08081
H      1.40519   -0.56772   -1.55878
H      5.54476   -0.03141   -3.46375
H      6.71755   -3.05156   -0.64152
H      1.58738   -0.58763    3.39989
H     -0.64170   -0.11754   -0.23612
H      8.08625   -3.64483   -4.43522
H     10.26441   -5.72973   -1.36981
H      0.50724   -3.18697    4.13257
H     -3.49568   -1.79144    4.81195
H      8.65879   -5.43820   -6.06434
H     10.82221   -7.54745   -2.99932
H      0.84887   -3.42473    6.60808
H     -3.16521   -2.02042    7.27450
