48

C      5.17614   -4.44758   -1.51242
C      6.16660   -3.61659    0.52026
C      3.31547   -3.06582    1.40246
C      2.95463   -2.47830   -0.90593
C      6.41423   -4.94785   -1.91610
C      7.40535   -4.12698    0.13832
C      2.12241   -2.43570    1.75355
C      1.76192   -1.83565   -0.57210
C      7.57144   -1.79709   -2.45339
C      9.12577   -1.19488   -0.68833
C     -1.78186    2.03722   -1.62291
C     -0.82637    1.85468    0.60570
C      6.60333   -0.96458   -1.89074
C      8.16010   -0.35830   -0.12365
C     -2.01864    3.39746   -1.41535
C     -1.07244    3.21415    0.81583
C      5.03585   -3.74161   -0.30556
C      3.75346   -3.10215    0.06727
C      7.52975   -4.75301   -1.10226
C      1.35329   -1.82436    0.76236
C      8.81286   -1.92797   -1.83292
C     -1.19034    1.27690   -0.61259
C      6.89937   -0.26646   -0.71869
C     -1.66459    3.97494   -0.19396
O      8.76015   -5.18084   -1.63150
O      0.19971   -1.15833    1.19891
O      9.72401   -2.84347   -2.38666
O     -0.93499   -0.06424   -0.92105
S     10.08942   -4.17171   -1.40951
S     -1.19039   -1.23433    0.26066
Cl     5.65631    0.71945    0.03070
Cl    -1.96538    5.68488    0.07318
H      4.31035   -4.59954   -2.15089
H      6.09263   -3.06160    1.45074
H      3.89731   -3.56260    2.17373
H      3.28712   -2.46040   -1.94011
H      6.53577   -5.45703   -2.86746
H      8.27826   -3.97321    0.76322
H      1.77416   -2.41907    2.78200
H      1.17337   -1.33270   -1.33163
H      7.35536   -2.38270   -3.34046
H     10.10197   -1.30074   -0.22492
H     -2.05311    1.55995   -2.55961
H     -0.34999    1.25950    1.37695
H      5.61912   -0.88217   -2.33941
H      8.37948    0.20595    0.77716
H     -2.48045    3.99975   -2.19108
H     -0.79492    3.67965    1.75617
