48

C      4.37819   -2.63695   -1.14581
C      5.65105   -1.64041    0.63933
C      2.98190   -1.47060    2.07992
C      2.04881   -1.03692   -0.10238
C      5.55119   -3.10210   -1.74251
C      6.83147   -2.09341    0.05384
C      1.76563   -1.13601    2.67510
C      0.82774   -0.70255    0.48024
C      6.06510   -6.55051   -3.01573
C      6.12183   -5.15585   -5.00381
C     -1.19746   -3.45843   -0.53321
C      0.25243   -3.99760    1.33701
C      4.82355   -7.05885   -3.40508
C      4.87677   -5.65580   -5.39084
C     -0.30640   -4.08030   -1.40972
C      1.15313   -4.60336    0.45939
C      4.40093   -1.90316    0.05158
C      3.13845   -1.45337    0.68201
C      6.77556   -2.82643   -1.13496
C      0.68736   -0.78444    1.86423
C      6.70795   -5.60855   -3.81976
C     -0.90689   -3.40811    0.83125
C      4.24046   -6.60956   -4.59225
C      0.87108   -4.63726   -0.90715
O      8.01559   -3.27744   -1.60572
O     -0.58809   -0.55414    2.40974
O      7.98123   -5.18835   -3.42896
O     -1.85027   -2.72397    1.61465
S      8.27645   -3.53847   -3.23934
S     -1.34368   -1.93635    3.01232
Cl     2.68992   -7.25774   -5.09605
Cl     2.01420   -5.38661   -2.01234
H      3.42869   -2.89215   -1.60433
H      5.70733   -1.04913    1.54907
H      3.80581   -1.79602    2.70875
H      2.15211   -0.98378   -1.18198
H      5.49597   -3.68026   -2.65710
H      7.79930   -1.88232    0.49860
H      1.63674   -1.19274    3.75213
H     -0.02731   -0.41883   -0.12497
H      6.53828   -6.87455   -2.09417
H      6.63356   -4.42240   -5.61957
H     -2.10779   -2.99313   -0.89846
H      0.47884   -3.94798    2.39573
H      4.31125   -7.79081   -2.78934
H      4.41096   -5.31801   -6.31103
H     -0.51848   -4.11851   -2.47347
H      2.07359   -5.03652    0.83697
