48

C      5.26356   -2.17973   -0.26595
C      4.16583   -3.89310    1.02791
C      2.26675   -1.68538    1.86868
C      2.48433   -0.93684   -0.41149
C      6.36946   -3.01080   -0.45377
C      5.26534   -4.73305    0.85608
C      1.11387   -0.91853    2.02348
C      1.32153   -0.17772   -0.27656
C      8.90947   -6.21276   -2.74710
C     10.43593   -4.51488   -3.58322
C     -0.62259   -3.06209   -0.05760
C     -1.55515   -3.35124    2.16618
C      9.22912   -7.02750   -3.83668
C     10.74723   -5.32574   -4.67627
C      0.19482   -4.17716    0.13542
C     -0.74242   -4.46972    2.36251
C      4.14573   -2.60091    0.47376
C      2.96323   -1.72580    0.64763
C      6.36113   -4.28473    0.11731
C      0.62944   -0.19385    0.93378
C      9.52256   -4.96367   -2.62737
C     -1.47616   -2.64782    0.96405
C     10.14269   -6.57946   -4.79243
C      0.13249   -4.86557    1.34832
O      7.40275   -5.20665   -0.06116
O     -0.57766    0.52511    0.95659
O      9.22511   -4.06696   -1.59510
O     -2.25012   -1.49690    0.74739
S      8.98971   -4.66192   -0.03907
S     -1.88736   -0.18055    1.74096
Cl    10.53492   -7.60510   -6.16365
Cl     1.17756   -6.25590    1.60903
H      5.28103   -1.17921   -0.68930
H      3.30484   -4.25974    1.57787
H      2.63568   -2.25789    2.71476
H      2.99258   -0.95895   -1.37153
H      7.22135   -2.67347   -1.03411
H      5.27927   -5.73404    1.27683
H      0.57418   -0.91962    2.96437
H      0.91808    0.39184   -1.10838
H      8.18673   -6.54508   -2.01012
H     10.89599   -3.53878   -3.46336
H     -0.57376   -2.48982   -0.97766
H     -2.23170   -3.01821    2.94737
H      8.76126   -8.00076   -3.94533
H     11.45785   -4.99024   -5.42475
H      0.88643   -4.49258   -0.63878
H     -0.78641   -5.02613    3.29329
