48

C      5.58515   -1.85153   -1.62604
C      6.05109   -2.31863    0.68972
C      3.43569   -1.00102    1.33779
C      2.69035   -1.91024   -0.76604
C      6.82784   -2.37541   -1.98526
C      7.30304   -2.82123    0.34867
C      2.11162   -0.86514    1.75207
C      1.36156   -1.77001   -0.36966
C      6.51867   -6.12856    0.84119
C      5.53719   -5.44380   -1.26966
C      0.88344   -3.09173    4.40744
C     -1.53958   -2.94159    4.52497
C      5.30147   -5.88720    1.48431
C      4.32003   -5.20549   -0.63070
C      0.97041   -2.80469    5.77177
C     -1.45424   -2.64565    5.88701
C      5.14936   -1.86704   -0.29024
C      3.75218   -1.55199    0.08444
C      7.65666   -2.90699   -0.99772
C      1.08361   -1.26708    0.90044
C      6.63411   -5.87644   -0.52616
C     -0.36926   -3.16243    3.79819
C      4.21619   -5.40673    0.74671
C     -0.19988   -2.58041    6.49943
O      8.80618   -3.58436   -1.43984
O     -0.22406   -1.12498    1.38624
O      7.85134   -6.03976   -1.21077
O     -0.38470   -3.51586    2.44324
S      9.12982   -5.06485   -0.69721
S     -1.19323   -2.50142    1.37178
Cl     2.70573   -5.01987    1.55347
Cl    -0.09459   -2.20868    8.21319
H      4.93404   -1.45995   -2.40254
H      5.74250   -2.35312    1.72972
H      4.23187   -0.68105    2.00376
H      2.90469   -2.34877   -1.73616
H      7.14033   -2.42649   -3.02392
H      7.95533   -3.23106    1.11193
H      1.86127   -0.46253    2.72886
H      0.55144   -2.08836   -1.01857
H      7.37811   -6.47860    1.40481
H      5.65546   -5.25580   -2.33145
H      1.77362   -3.26488    3.81102
H     -2.50561   -2.99163    4.03220
H      5.20091   -6.06007    2.55116
H      3.46717   -4.83695   -1.18985
H      1.93697   -2.74919    6.26240
H     -2.35378   -2.47266    6.46905
