48

C      5.02923   -1.71488   -1.37351
C      4.67395   -3.84727   -0.30894
C      2.95387   -2.31549    1.63901
C      2.22625   -1.08646   -0.30670
C      6.09588   -2.25091   -2.09548
C      5.74010   -4.39561   -1.01968
C      1.83664   -1.87253    2.34391
C      1.10166   -0.63890    0.38764
C      4.67948   -6.96753   -3.66088
C      4.40658   -4.68879   -4.45823
C      0.00607   -4.93967    2.70293
C     -0.19681   -3.91489    0.51255
C      3.30630   -7.05163   -3.42399
C      3.03167   -4.77090   -4.22879
C      0.93749   -5.84866    2.19669
C      0.74848   -4.80957    0.00927
C      4.29871   -2.50245   -0.46808
C      3.15539   -1.95272    0.29617
C      6.44403   -3.59042   -1.91474
C      0.90255   -1.06233    1.70112
C      5.21687   -5.78819   -4.17818
C     -0.54614   -3.97149    1.86205
C      2.49462   -5.95384   -3.71820
C      1.30889   -5.76817    0.85351
O      7.54198   -4.03143   -2.67261
O     -0.27051   -0.73092    2.40126
O      6.58399   -5.68328   -4.46606
O     -1.44230   -3.08771    2.48528
S      7.62561   -5.63829   -3.14110
S     -1.64946   -1.53960    1.86155
Cl     0.76118   -6.07070   -3.45375
Cl     2.50443   -6.89102    0.21266
H      4.77788   -0.66540   -1.50098
H      4.10667   -4.48905    0.35697
H      3.67410   -2.95902    2.13528
H      2.35900   -0.79646   -1.34545
H      6.66718   -1.64602   -2.79332
H      5.99564   -5.44250   -0.89922
H      1.65774   -2.17942    3.36939
H      0.36182   -0.00617   -0.09423
H      5.32909   -7.81062   -3.44525
H      4.85586   -3.77975   -4.84476
H     -0.28439   -4.96165    3.74878
H     -0.62037   -3.15714   -0.13612
H      2.86904   -7.95936   -3.02181
H      2.38630   -3.92512   -4.44309
H      1.37694   -6.60150    2.84329
H      1.04335   -4.75958   -1.03206
