48

C      4.94689   -1.01749   -1.54927
C      4.63965   -3.19834   -0.57516
C      3.05664   -1.78839    1.55742
C      2.17981   -0.50047   -0.28260
C      5.94813   -1.52764   -2.37683
C      5.63153   -3.72412   -1.40091
C      1.95494   -1.44808    2.33762
C      1.05966   -0.16785    0.48141
C      8.21083   -5.99443   -0.38247
C      6.68953   -7.26281   -1.78884
C      0.06868   -3.53645    0.28555
C      0.14155   -4.58331    2.47511
C      7.64673   -6.57532    0.75566
C      6.11798   -7.83893   -0.65230
C      1.08042   -4.38937   -0.16021
C      1.15315   -5.43916    2.03361
C      4.27492   -1.84414   -0.63283
C      3.17579   -1.34896    0.22662
C      6.28500   -2.88208   -2.29939
C      0.93913   -0.67410    1.77480
C      7.72360   -6.33549   -1.64459
C     -0.38348   -3.63039    1.60118
C      6.59827   -7.48690    0.61183
C      1.61713   -5.33056    0.72056
O      7.33277   -3.29112   -3.13785
O     -0.27029   -0.40013    2.43438
O      8.32035   -5.72551   -2.75052
O     -1.39345   -2.74573    2.01160
S      7.33991   -4.83361   -3.79732
S     -0.99073   -1.68055    3.25778
Cl     5.86853   -8.19806    2.04006
Cl     2.91014   -6.39242    0.17550
H      4.69942    0.03924   -1.60561
H      4.12428   -3.86673    0.10529
H      3.83493   -2.41306    1.98604
H      2.24300   -0.15322   -1.31033
H      6.47716   -0.89055   -3.07931
H      5.86638   -4.77819   -1.34428
H      1.85865   -1.82543    3.35005
H      0.25317    0.43263    0.07147
H      9.00904   -5.26343   -0.30102
H      6.31935   -7.51668   -2.77734
H     -0.34659   -2.77770   -0.36884
H     -0.22619   -4.64758    3.49467
H      8.00776   -6.31063    1.74425
H      5.30781   -8.55478   -0.74752
H      1.46017   -4.30855   -1.17336
H      1.57655   -6.18277    2.70119
