48

C      4.36620   -3.54938   -1.26722
C      5.95663   -2.50141    0.21142
C      3.52373   -1.21383    1.48950
C      2.66390   -1.08854   -0.75815
C      5.34983   -4.43934   -1.70074
C      6.94700   -3.39050   -0.20573
C      2.54205   -0.32468    1.92993
C      1.68163   -0.19269   -0.33733
C      7.04430   -4.74381   -5.18530
C      9.20861   -5.84792   -5.18453
C     -0.65103    1.33544    5.88840
C     -1.63565    0.85209    3.71840
C      6.64682   -5.51663   -6.27955
C      8.81180   -6.62710   -6.27290
C     -1.87451    1.07294    6.50754
C     -2.86224    0.59887    4.33836
C      4.65068   -2.56220   -0.30805
C      3.60558   -1.61350    0.14454
C      6.63360   -4.35590   -1.16269
C      1.62917    0.18513    1.00506
C      8.32135   -4.91212   -4.65098
C     -0.54099    1.22564    4.50096
C      7.53376   -6.45434   -6.81171
C     -2.97334    0.70991    5.72548
O      7.55559   -5.32044   -1.59461
O      0.58234    1.04600    1.36263
O      8.68921   -4.06845   -3.59653
O      0.73277    1.45280    3.96704
S      9.06031   -4.79629   -2.12302
S      0.86957    2.25275    2.49409
Cl     7.03645   -7.43388   -8.18218
Cl    -4.51637    0.38487    6.49936
H      3.35899   -3.63940   -1.66429
H      6.20999   -1.73264    0.93597
H      4.21477   -1.63232    2.21585
H      2.72033   -1.35408   -1.81005
H      5.13369   -5.21010   -2.43457
H      7.95495   -3.32444    0.19226
H      2.47626   -0.04904    2.97684
H      0.96455    0.22778   -1.03610
H      6.37812   -4.00825   -4.74507
H     10.19675   -5.96906   -4.75108
H      0.21795    1.62674    6.47047
H     -1.53573    0.74978    2.64349
H      5.65775   -5.39601   -6.70980
H      9.48947   -7.35771   -6.70279
H     -1.97463    1.15775    7.58484
H     -3.72295    0.30684    3.74521
