48

C      4.21892   -1.68036   -1.58174
C      4.79730   -3.26892    0.14112
C      3.22200   -1.42444    1.95945
C      1.70891   -1.22017    0.08990
C      5.24190   -2.17455   -2.39126
C      5.81930   -3.77453   -0.66066
C      2.27070   -0.85452    2.80457
C      0.74973   -0.64443    0.92468
C      8.79752   -2.87377    1.05614
C      7.78661   -1.02317   -0.14677
C     -0.84143    2.91890    0.85061
C     -1.76031    3.62842    2.98459
C      8.20044   -2.43749    2.24014
C      7.17548   -0.59472    1.03288
C     -1.98916    3.37872    0.19952
C     -2.91161    4.08170    2.33802
C      3.99433   -2.20098   -0.29496
C      2.96037   -1.61609    0.59070
C      6.05167   -3.20232   -1.91004
C      1.03839   -0.46768    2.27752
C      8.57564   -2.17430   -0.13128
C     -0.73430    3.05137    2.23476
C      7.38163   -1.30737    2.21544
C     -3.01625    3.95367    0.95020
O      7.15344   -3.66311   -2.65274
O      0.01599    0.06410    3.07673
O      9.18647   -2.72502   -1.26812
O      0.46413    2.63290    2.82382
S      8.42873   -2.56640   -2.76261
S      0.37085    1.42498    3.99438
Cl     6.59373   -0.77810    3.69647
Cl    -4.46430    4.52711    0.13836
H      3.61563   -0.84948   -1.93691
H      4.62535   -3.70566    1.12044
H      4.19090   -1.69618    2.36631
H      1.47274   -1.38178   -0.95832
H      5.43863   -1.74341   -3.36860
H      6.46168   -4.57813   -0.31541
H      2.48995   -0.69426    3.85585
H     -0.22404   -0.34520    0.54855
H      9.41731   -3.76489    1.03792
H      7.60874   -0.48978   -1.07359
H     -0.02535    2.46470    0.29714
H     -1.66253    3.71820    4.06219
H      8.35792   -2.97949    3.16714
H      6.53568    0.28170    1.02811
H     -2.08691    3.28595   -0.87742
H     -3.71810    4.53571    2.90485
