48

C      4.68406   -2.27753   -2.69482
C      6.21076   -1.53060   -0.98581
C      3.88778   -1.99892    0.90079
C      2.52493   -1.11503   -0.88347
C      5.75771   -2.52095   -3.55190
C      7.29130   -1.75221   -1.83675
C      2.82683   -1.85959    1.79490
C      1.45821   -0.96125    0.00323
C      6.85011   -5.16822   -1.55518
C      8.94314   -4.64332   -0.44052
C     -0.17229    2.29442    1.39403
C     -1.34884    2.08957    3.51014
C      6.18598   -5.14811   -0.32739
C      8.28391   -4.62579    0.79037
C     -1.23679    3.03269    0.87010
C     -2.41711    2.82074    2.98753
C      4.89143   -1.80472   -1.38835
C      3.75848   -1.63015   -0.45059
C      7.05712   -2.27974   -3.10728
C      1.61663   -1.33850    1.33669
C      8.21704   -4.89798   -1.60420
C     -0.23525    1.83387    2.70881
C      6.90911   -4.86816    0.83352
C     -2.35157    3.28655    1.67135
O      8.08297   -2.63451   -3.99924
O      0.48568   -1.21322    2.15684
O      8.83937   -4.88491   -2.86251
O      0.88269    1.15395    3.20508
S      9.44338   -3.38813   -3.35849
S      0.66651   -0.45839    3.64514
Cl     6.07546   -4.81402    2.38114
Cl    -3.69565    4.20777    1.01575
H      3.67718   -2.51289   -3.02851
H      6.39555   -1.13036    0.00683
H      4.81674   -2.43622    1.25314
H      2.40609   -0.79889   -1.91625
H      5.60705   -2.93631   -4.54380
H      8.30472   -1.56000   -1.50132
H      2.93684   -2.15680    2.83320
H      0.50559   -0.55267   -0.32060
H      6.30884   -5.35264   -2.47683
H     10.00880   -4.44322   -0.49738
H      0.70820    2.07688    0.79729
H     -1.38136    1.71771    4.52982
H      5.11683   -5.32611   -0.27758
H      8.83123   -4.42392    1.70556
H     -1.20280    3.40171   -0.15000
H     -3.28999    3.03209    3.59683
