48

C      4.94141   -1.74173   -1.59735
C      5.02193   -3.44200    0.11405
C      3.30807   -1.52565    1.75161
C      2.30108   -1.00692   -0.38058
C      5.87515   -2.44898   -2.35208
C      5.95916   -4.15773   -0.63077
C      2.22098   -0.95381    2.41307
C      1.20585   -0.43967    0.26828
C      3.67941   -3.55678   -5.03959
C      3.47413   -4.85452   -2.99925
C     -2.03031   -1.96747   -0.23305
C     -3.45177   -0.72627    1.29768
C      2.48443   -2.89728   -4.74731
C      2.28701   -4.18397   -2.69685
C     -2.87092   -1.63056   -1.29578
C     -4.28870   -0.38031    0.23413
C      4.47039   -2.24246   -0.37149
C      3.36351   -1.57000    0.34668
C      6.34725   -3.67159   -1.87868
C      1.17288   -0.42131    1.66132
C      4.17321   -4.52346   -4.16073
C     -2.32985   -1.51858    1.05378
C      1.80122   -3.21119   -3.57097
C     -3.99307   -0.83586   -1.05317
O      7.17194   -4.42893   -2.72800
O      0.05263    0.17244    2.25950
O      5.39257   -5.10091   -4.54816
O     -1.46472   -1.95133    2.06729
S      6.40859   -5.77945   -3.39232
S     -0.91930   -0.83383    3.19881
Cl     0.30764   -2.36117   -3.18523
Cl    -5.04754   -0.39726   -2.38808
H      4.55868   -0.79887   -1.97622
H      4.67152   -3.85116    1.05742
H      4.13292   -1.92470    2.33562
H      2.30220   -1.05783   -1.46404
H      6.20576   -2.09085   -3.32187
H      6.34412   -5.11020   -0.27799
H      2.17887   -0.92652    3.49793
H      0.36776   -0.03408   -0.28959
H      4.24273   -3.31947   -5.93677
H      3.86405   -5.59733   -2.31347
H     -1.14266   -2.57036   -0.39442
H     -3.66504   -0.37286    2.30151
H      2.09574   -2.14105   -5.42181
H      1.75079   -4.41426   -1.78206
H     -2.65145   -1.97761   -2.30035
H     -5.16611    0.23514    0.40527
