48

C      4.57020   -3.35506   -1.19537
C      6.29193   -2.76098    0.38096
C      4.07722   -1.40917    1.94446
C      3.19399   -0.83690   -0.22267
C      5.46679   -4.18613   -1.86754
C      7.19279   -3.60161   -0.26872
C      3.25155   -0.45955    2.54690
C      2.36742    0.12225    0.36100
C      7.17053   -1.49260   -3.04415
C      9.26288   -1.27364   -1.83230
C      0.59010    1.14956    6.87309
C     -0.57252    1.07427    4.73894
C      6.64034   -0.41740   -2.33040
C      8.73631   -0.19512   -1.11756
C     -0.62143    0.97705    7.54503
C     -1.78579    0.91105    5.41310
C      4.97476   -2.59834   -0.08256
C      4.06745   -1.61715    0.55484
C      6.78456   -4.27545   -1.42000
C      2.40587    0.30726    1.74322
C      8.46514   -1.93024   -2.76928
C      0.60598    1.19878    5.47788
C      7.42111    0.21012   -1.35820
C     -1.80240    0.86254    6.80811
O      7.65675   -5.03485   -2.22003
O      1.51333    1.25271    2.26724
O      8.92326   -3.07203   -3.44843
O      1.86729    1.31708    4.88341
S      9.20439   -4.42174   -2.47259
S      2.03511    2.26329    3.50287
Cl     6.72493    1.50830   -0.40470
Cl    -3.32979    0.64984    7.64939
H      3.54547   -3.28655   -1.54971
H      6.63825   -2.17737    1.22865
H      4.71777   -2.02081    2.57358
H      3.18550   -0.95346   -1.30277
H      5.17002   -4.73917   -2.75366
H      8.22024   -3.67183    0.07106
H      3.25387   -0.32789    3.62346
H      1.70713    0.74035   -0.24002
H      6.57234   -2.02561   -3.77533
H     10.27297   -1.62197   -1.63914
H      1.52270    1.24839    7.42014
H     -0.54833    1.09373    3.65502
H      5.62061   -0.09054   -2.50365
H      9.33570    0.31552   -0.37061
H     -0.64812    0.94013    8.62933
H     -2.71086    0.81166    4.85426
