18   

C        4.6319666886    1.3486988316    0.7509308737
C        5.8110736439    1.1228674179    0.0507060375
C        3.5008874128    0.5758692131    0.4819786556
C        5.8486612186    0.1261222386   -0.9221720512
C        3.5148812075   -0.4449182471   -0.4880718959
C        4.7214380976   -0.6554127984   -1.2053730147
C        2.2836726517   -1.2595635898   -0.7409971179
C        0.9221584138   -0.7752300541   -0.2538553934
O        2.3102354744   -2.3131859061   -1.3628699842
O        4.8349533482   -1.5914337774   -2.1919379162
H        4.5925838382    2.1234969016    1.5084807109
H        6.6927532583    1.7197098013    0.2585625720
H        2.6071814676    0.7820470821    1.0595739671
H        6.7707403664   -0.0349875103   -1.4666472845
H        0.7808069683    0.2757745436   -0.5192326702
H        0.8519511112   -0.8942180589    0.8304565417
H        0.1276645507   -1.3618235700   -0.7242267750
H        5.7455469082   -1.6358018917   -2.5230762776
18   

C        4.6538102848    1.3499675644    0.7933706890
C        5.8029486566    1.1727813939    0.0291371674
C        3.5350944513    0.5453601376    0.5677991315
C        5.8217294441    0.1954828562   -0.9657199700
C        3.5390812337   -0.4554416673   -0.4197620245
C        4.7049900186   -0.6148217564   -1.2046954720
C        2.3294741382   -1.3189268933   -0.6179731070
C        0.9386675675   -0.7604384575   -0.3431251042
O        2.4123600260   -2.4711546229   -1.0185709282
O        4.7754508221   -1.5260214331   -2.2182157622
H        4.6296725407    2.1090994098    1.5672199979
H        6.6755775880    1.7929628861    0.2042228371
H        2.6603081370    0.7003719106    1.1895087565
H        6.7176035973    0.0741589108   -1.5617928882
H        0.8769123421    0.2757862678   -0.6860258202
H        0.7274334595   -0.8036909799    0.7284019114
H        0.1887223916   -1.3504957980   -0.8776071004
H        5.6783476405   -1.5816599990   -2.5689567399
18   

C        4.7204359080    1.2957079594    0.8524620764
C        5.8209057127    1.1539967809    0.0106277490
C        3.5968832321    0.4855203685    0.6732469358
C        5.7860526418    0.2066605247   -1.0139125779
C        3.5526894013   -0.4797736068   -0.3443829146
C        4.6627486252   -0.6069044731   -1.2041045029
C        2.3474367075   -1.3659700565   -0.4960315700
C        0.9510761757   -0.7649562850   -0.4139739162
O        2.4567350047   -2.5681761037   -0.6810882383
O        4.6620266469   -1.4942134049   -2.2410950420
H        4.7389195713    2.0299670166    1.6500740845
H        6.6973617098    1.7778819242    0.1496553941
H        2.7568311744    0.6031330388    1.3490424531
H        6.6428817521    0.1115158921   -1.6691874881
H        0.9207236993    0.1765116516   -0.9688636829
H        0.6866737611   -0.5791729498    0.6299432253
H        0.2223403111   -1.4543646129   -0.8496315584
H        5.5468879996   -1.5628062024   -2.6339445667
18   

C        4.7735486578    1.2371239906    0.9480175411
C        5.8222598678    1.1505310618    0.0338139014
C        3.6523811039    0.4162228940    0.8024124374
C        5.7391305341    0.2459367480   -1.0271520342
C        3.5638512259   -0.4991184923   -0.2538192506
C        4.6174022018   -0.5768265504   -1.1811955159
C        2.3643005783   -1.4049516050   -0.3769963154
C        0.9680202665   -0.8037502298   -0.4578320359
O        2.4840695210   -2.6188476484   -0.3551165292
O        4.5569395374   -1.4315668432   -2.2435135981
H        4.8313389278    1.9355459730    1.7753608806
H        6.6965870655    1.7826207979    0.1466466194
H        2.8527930565    0.4840722577    1.5320835678
H        6.5557899170    0.1908196294   -1.7361019783
H        0.8560424845   -0.2738432937   -1.4074189312
H        0.8077759823   -0.1025543410    0.3643809548
H        0.2151634385   -1.5950270174   -0.4010480739
H        5.4180625895   -1.4831750597   -2.6891008316
18   

C        4.8357091907    1.1882317075    1.0284434031
C        5.8319012341    1.1343016599    0.0540336742
C        3.7104653072    0.3667376636    0.9204153735
C        5.6925863989    0.2606812393   -1.0274562182
C        3.5680907327   -0.5143591444   -0.1557819405
C        4.5661731827   -0.5619843408   -1.1411768357
C        2.3581691156   -1.4159331338   -0.2556184048
C        0.9982917315   -0.8115119697   -0.5702157270
O        2.4380934431   -2.6069932263   -0.0090216900
O        4.4439271683   -1.3919693612   -2.2178339204
H        4.9368680597    1.8621348618    1.8717806154
H        6.7088178321    1.7674868401    0.1365128024
H        2.9466111710    0.4067111093    1.6897687215
H        6.4684490777    0.2297029489   -1.7822136249
H        0.9547794165   -0.5520350849   -1.6312778775
H        0.8426405256    0.0918813740    0.0246595847
H        0.2055637759   -1.5300508201   -0.3440573078
H        5.2728104346   -1.4166814132   -2.7235553456
18   

C        4.9144416488    1.1366579200    1.1195291644
C        5.8516991683    1.1049020940    0.0872773756
C        3.7790521339    0.3245279131    1.0545416343
C        5.6435779506    0.2622106487   -1.0076940506
C        3.5701342767   -0.5278990587   -0.0328433599
C        4.5070193441   -0.5512770355   -1.0767427819
C        2.3326806703   -1.3957109205   -0.1114142168
C        1.0783902088   -0.8459497348   -0.7721701368
O        2.3184521221   -2.5209620057    0.3569035494
O        4.3140743467   -1.3506953875   -2.1663700077
H        5.0675866535    1.7877951400    1.9728453077
H        6.7352876122    1.7323623726    0.1350092576
H        3.0566579854    0.3495211902    1.8637042330
H        6.3731937907    0.2493422303   -1.8077482011
H        1.2777878892   -0.6569093157   -1.8303045318
H        0.7868427021    0.0905146519   -0.2900038462
H        0.2597097339   -1.5657280492   -0.6851912491
H        5.1007604423   -1.3418928384   -2.7364947004
18   

C        4.9728298843    1.0736095286    1.1676276238
C        5.8611913487    1.0703198394    0.0924375234
C        3.8243295764    0.2788919426    1.1243309099
C        5.5928268460    0.2718115140   -1.0226723641
C        3.5543983572   -0.5279086104    0.0145702431
C        4.4434470392   -0.5251970509   -1.0709862594
C        2.2910481144   -1.3567723676   -0.0306313630
C        1.1252131929   -0.9050557620   -0.8976718582
O        2.1822206524   -2.3746476185    0.6332516641
O        4.1979473240   -1.2877620519   -2.1763585874
H        5.1732638497    1.6897253041    2.0370030364
H        6.7542911409    1.6852544829    0.1232581787
H        3.1381067741    0.2815402412    1.9649902463
H        6.2869166702    0.2798855013   -1.8537951518
H        1.4176505814   -0.9288586866   -1.9505321012
H        0.8406222784    0.1153797773   -0.6289372271
H        0.2676247399   -1.5674292741   -0.7507144030
H        4.9529422270   -1.2500189347   -2.7870928751
18   

C        5.0319515837    1.0265376059    1.2004223437
C        5.8786224094    1.0539636103    0.0920156875
C        3.8679040532    0.2546136141    1.1683375815
C        5.5551604331    0.3077400350   -1.0452075181
C        3.5428392847   -0.4978245275    0.0325380724
C        4.3904309297   -0.4675196664   -1.0852967772
C        2.2553888184   -1.2841796603    0.0325155930
C        1.1472998417   -0.9433085096   -0.9538571906
O        2.0621335897   -2.1526924064    0.8700791312
O        4.0982683594   -1.1853036523   -2.2088225849
H        5.2763588383    1.6013001754    2.0867113480
H        6.7834267025    1.6518990066    0.1149605409
H        3.2129285001    0.2324962178    2.0336331498
H        6.2201752354    0.3386736287   -1.8992411025
H        1.3885344699   -1.3522995689   -1.9380600816
H        1.0440815043    0.1419221086   -1.0326136157
H        0.1988559385   -1.3682225966   -0.6141058230
H        4.8266822680   -1.1198583392   -2.8490311598
18   

C        5.0283207948    0.8927146462    1.2667960467
C        5.8507069501    0.9524328572    0.1418941530
C        3.8345499052    0.1689903836    1.2190311664
C        5.4749463250    0.2849037158   -1.0276349358
C        3.4536816969   -0.5034781805    0.0479737210
C        4.2808575000   -0.4434871906   -1.0861891276
C        2.1348636819   -1.2265628262    0.0548249545
C        1.1208297271   -1.0267341349   -1.0633102264
O        1.8274942007   -1.9241431991    1.0129604984
O        3.9476213970   -1.0875651837   -2.2425317798
H        5.3135590938    1.4061326233    2.1781931218
H        6.7779193355    1.5143482384    0.1773770270
H        3.1986803915    0.1253270881    2.0979778358
H        6.1240158795    0.3397726571   -1.8926598618
H        1.2715477441   -1.7864099016   -1.8346914922
H        1.2452739147   -0.0356677611   -1.5074040520
H        0.1057268794   -1.1133933206   -0.6666047191
H        4.6573433758   -0.9882327216   -2.8992693083
18   

C        5.0808547430    0.8472351655    1.2799568561
C        5.8784200624    0.9253903040    0.1395923388
C        3.8596999682    0.1714424311    1.2314795050
C        5.4521323809    0.3213232880   -1.0461809346
C        3.4201689122   -0.4326382186    0.0407205300
C        4.2307377570   -0.3604577097   -1.1087184052
C        2.0824425880   -1.1168180306    0.0737127527
C        1.1313396257   -1.0899338339   -1.1162218616
O        1.6868705618   -1.6163858788    1.1214236485
O        3.8673242804   -0.9519339825   -2.2837261165
H        5.4061216382    1.3096573670    2.2051501148
H        6.8268211566    1.4506738686    0.1762903654
H        3.2490216807    0.1192158476    2.1277898195
H        6.0862256038    0.3865272670   -1.9215386896
H        1.3416857480   -1.9376714161   -1.7734951466
H        1.2563719746   -0.1591781981   -1.6755502337
H        0.0967236444   -1.1556167093   -0.7687637795
H        4.5675884449   -0.8372818714   -2.9481236370
18   

C        5.0853192107    0.7951897800    1.3192571854
C        5.8656972778    0.8774947620    0.1690669469
C        3.8307047940    0.1846207058    1.2692036549
C        5.3888803385    0.3412237120   -1.0286306586
C        3.3329246644   -0.3496816010    0.0655402595
C        4.1336708196   -0.2762350677   -1.0958696328
C        1.9669680649   -0.9783938683    0.1183463243
C        1.0943218575   -1.1723911365   -1.1163742297
O        1.4736853313   -1.2520117208    1.2086311714
O        3.7387270465   -0.8034273758   -2.2906957491
H        5.4494642248    1.2045231041    2.2549302715
H        6.8401223958    1.3526459631    0.2074020418
H        3.2433784010    0.1358097022    2.1810875659
H        6.0123148597    0.4073220981   -1.9115558311
H        1.4214852760   -2.0603278380   -1.6635700821
H        1.1614716294   -0.2960413590   -1.7660144249
H        0.0504851422   -1.3058512319   -0.8191235182
H        4.4335775631   -0.6783613838   -2.9588637484
18   

C        5.1368192566    0.7417174817    1.3248049463
C        5.9095581385    0.8403158779    0.1720250984
C        3.8570325086    0.1876727448    1.2623507863
C        5.3966406511    0.3825895715   -1.0421953795
C        3.3234184494   -0.2794076574    0.0452144916
C        4.1148223953   -0.1761411697   -1.1239608633
C        1.9337491216   -0.8573044862    0.0966843421
C        1.2005360496   -1.4089696159   -1.1209795518
O        1.3396025054   -0.8958518344    1.1707119722
O        3.6851366383   -0.6003411950   -2.3470160221
H        5.5263530822    1.0945466474    2.2731864912
H        6.9041056667    1.2707922424    0.2201107653
H        3.2829169129    0.1269107940    2.1818022376
H        6.0121723956    0.4673608235   -1.9290734173
H        1.7624955125   -2.2430137086   -1.5489811052
H        1.0763577187   -0.6226436400   -1.8699036634
H        0.2104262726   -1.7704977798   -0.8294317119
H        4.3713602701   -0.4426307217   -3.0171404339
18   

C        5.1383777983    0.6697862583    1.3440550245
C        5.9046837104    0.7853388278    0.1872821338
C        3.8354123420    0.1734434769    1.2713793555
C        5.3602881490    0.4087199983   -1.0420313610
C        3.2784060294   -0.2209447857    0.0400085805
C        4.0544797293   -0.0892027110   -1.1329438152
C        1.8700857630   -0.7495810726    0.0729884152
C        1.2892096341   -1.6328416263   -1.0252443930
O        1.1817370469   -0.5623994570    1.0720154821
O        3.5737924088   -0.4138224915   -2.3678864734
H        5.5510930581    0.9643727337    2.3024518101
H        6.9173886076    1.1700568191    0.2435266738
H        3.2614394509    0.0930786249    2.1895098986
H        5.9677747670    0.5124969459   -1.9324171281
H        2.0349229040   -2.3595429436   -1.3574300528
H        0.9784739716   -1.0137707573   -1.8708716197
H        0.4187493230   -2.1758992207   -0.6468900916
H        4.2431135036   -0.2284396338   -3.0479965245
18   

C        4.6347901043    1.9332305894    0.0941840002
C        5.7652808442    1.1285318150   -0.0365829502
C        3.3673870202    1.3994544985   -0.1487914753
C        5.6230460617   -0.2089040232   -0.4156748482
C        3.2150583195    0.0531707736   -0.5233993714
C        4.3585919010   -0.7568418863   -0.6635878528
C        1.8128965991   -0.4423375250   -0.7404684171
C        1.3850545607   -1.8524997330   -0.3536124479
O        0.9522594038    0.3377799710   -1.1334834336
O        4.2723584485   -2.0624500672   -1.0515410107
H        4.7366571710    2.9730812827    0.3839236027
H        6.7500557301    1.5422604265    0.1525763471
H        2.4959392706    2.0384501331   -0.0425319242
H        6.5118455636   -0.8189086780   -0.5181773360
H        1.9585026939   -2.1944502276    0.5118437170
H        1.5574497798   -2.5315834104   -1.1926821003
H        0.3219958991   -1.8632492647   -0.0981475018
H        5.1611525765   -2.4464437551   -1.1383331435
18   

C        4.6054942725    1.9112499637    0.1548925875
C        5.7474630502    1.1260098253   -0.0019140016
C        3.3485204632    1.3794519201   -0.1423504704
C        5.6264446825   -0.1900094589   -0.4580191175
C        3.2220406354    0.0596335647   -0.6014095864
C        4.3715903520   -0.7327264904   -0.7590674120
C        1.8346911296   -0.4603524828   -0.8603795496
C        1.3753572683   -1.7965939715   -0.2930219984
O        1.0270533710    0.2333182828   -1.4650992017
O        4.2907045459   -2.0193976312   -1.2073381161
H        4.6910783556    2.9333789036    0.5063628988
H        6.7242704245    1.5375185668    0.2288211938
H        2.4630857728    1.9955823487   -0.0191761741
H        6.5220481732   -0.7872169164   -0.5755254363
H        1.9255344490   -2.0215828823    0.6243675673
H        1.5594760702   -2.5878835764   -1.0243313239
H        0.3065707866   -1.7582215976   -0.0659941162
H        5.1808792468   -2.3955891885   -1.3119583615
18   

C        4.5691759895    1.8377457806    0.2202277155
C        5.7229086367    1.0820226828    0.0109593102
C        3.3209929032    1.3122003974   -0.1228594898
C        5.6213113631   -0.1983468637   -0.5412712130
C        3.2153089642    0.0315659743   -0.6802449048
C        4.3743445675   -0.7320294610   -0.8869921002
C        1.8424448056   -0.5069535345   -0.9982155475
C        1.3121382013   -1.7347411721   -0.2712548038
O        1.1161397421    0.0785887642   -1.7873617398
O        4.3044586329   -1.9849907337   -1.4237175311
H        4.6394506986    2.8321527197    0.6466222757
H        6.6932408951    1.4882968048    0.2757691251
H        2.4254444288    1.9041206989    0.0378718852
H        6.5243994641   -0.7750366676   -0.6975908207
H        1.5560177899   -1.6680425764    0.7920596035
H        1.7668984392   -2.6372301618   -0.6869059858
H        0.2265280418   -1.7983381084   -0.3850116910
H        5.1978303167   -2.3357333667   -1.5773547187
18   

C        4.6416370703    1.8281180898    0.3480096105
C        5.8071036904    1.1007008606    0.1077062193
C        3.4030623344    1.3038490689   -0.0309010369
C        5.7253109587   -0.1504812047   -0.5094869637
C        3.3155562498    0.0559228380   -0.6556509592
C        4.4870159129   -0.6800509388   -0.8900390944
C        1.9654372511   -0.5117718287   -1.0299057302
C        1.3562482406   -1.6223145332   -0.1869482600
O        1.3447822698   -0.0803508760   -1.9876716388
O        4.4326571240   -1.9094013302   -1.4811129783
H        4.6956823158    2.7998391036    0.8259468323
H        6.7703659067    1.5052403785    0.3995894741
H        2.4993112752    1.8752734962    0.1543649673
H        6.6358630950   -0.7088348106   -0.6876095982
H        1.3014318821   -1.3037668499    0.8570927264
H        1.9768497831   -2.5194627144   -0.2546113146
H        0.3496873765   -1.8572651345   -0.5439168344
H        5.3295490876   -2.2375586104   -1.6609352297
18   

C        4.6249202611    1.7747546002    0.4291745101
C        5.8109437784    1.0987890654    0.1438194110
C        3.4005361016    1.2315423130    0.0308123680
C        5.7632286765   -0.1212348928   -0.5356468828
C        3.3466797739    0.0168816565   -0.6579505931
C        4.5388253355   -0.6688321696   -0.9347300263
C        2.0198763456   -0.5797356977   -1.0753633099
C        1.2886545981   -1.5105883827   -0.1209494592
O        1.5206570610   -0.3175839679   -2.1559872953
O        4.5152457780   -1.8724458695   -1.5784253766
H        4.6524326401    2.7218168032    0.9563344826
H        6.7634646382    1.5181721543    0.4496540331
H        2.4818425459    1.7653110493    0.2506189650
H        6.6886901699   -0.6423422924   -0.7467378231
H        1.1281205598   -1.0071967220    0.8357499581
H        1.8900772728   -2.4085905249    0.0434479213
H        0.3218135643   -1.7995070473   -0.5424110793
H        5.4179559985   -2.1569017774   -1.7979553128
18   

C        4.6012348353    1.6723280061    0.5072647009
C        5.8134033580    1.0657315654    0.1794324325
C        3.3982152900    1.0905254321    0.0986739630
C        5.8135867884   -0.1247408467   -0.5520189388
C        3.3916856427   -0.0971020480   -0.6391016682
C        4.6111682558   -0.7124260473   -0.9610822454
C        2.0871838922   -0.7101778706   -1.0964170613
C        1.1568160291   -1.3412049688   -0.0718290509
O        1.7301550443   -0.6361832941   -2.2595425139
O        4.6374539916   -1.8863127671   -1.6570054141
H        4.5923104654    2.5971661331    1.0731188483
H        6.7495054601    1.5164640405    0.4913010257
H        2.4606415369    1.5762244395    0.3477272234
H        6.7593912709   -0.5916093592   -0.7971081699
H        1.0713110485   -0.6950703826    0.8053378778
H        1.5612435910   -2.3090912472    0.2359188797
H        0.1639489005   -1.4890879390   -0.5056596408
H        5.5458116668   -2.1022526738   -1.9247149487
18   

C        4.5874726908    1.5846985334    0.5774683975
C        5.8162361232    1.0460806696    0.1991885009
C        3.4013773660    0.9691332496    0.1695989583
C        5.8506143462   -0.1121152483   -0.5807144915
C        3.4262035409   -0.1879580558   -0.6189376908
C        4.6664133361   -0.7360411118   -0.9897673522
C        2.1378869441   -0.8202344679   -1.0829247623
C        1.0927518489   -1.2443548089   -0.0604780441
O        1.8879807669   -0.9476320896   -2.2702253857
O        4.7358151250   -1.8807322610   -1.7297817587
H        4.5523783733    2.4845757913    1.1813054987
H        6.7391208980    1.5242206801    0.5096431154
H        2.4536942292    1.4106620050    0.4582388456
H        6.8099939800   -0.5268914009   -0.8637908946
H        0.8662543780   -0.4178503910    0.6170001104
H        1.4749251069   -2.0884604097    0.5195955081
H        0.1732572672   -1.5489003246   -0.5683328053
H        5.6443829206   -2.0344034973   -2.0357778723
18   

C        4.5903328290    1.4877050731    0.6547542539
C        5.8243729113    1.0245442657    0.2048436700
C        3.4169433033    0.8414435645    0.2592721180
C        5.8770227395   -0.0911679477   -0.6322594331
C        3.4536729761   -0.2734179294   -0.5920953886
C        4.7066794783   -0.7481195375   -1.0304806285
C        2.1758319672   -0.9312762710   -1.0345160578
C        1.0735820969   -1.2027227706   -0.0200585144
O        1.9925979962   -1.2542376615   -2.1979606306
O        4.8113766120   -1.8555311847   -1.8212698466
H        4.5406713062    2.3530684717    1.3061699476
H        6.7376433762    1.5267052069    0.5056887258
H        2.4661198467    1.2275406499    0.6101009802
H        6.8421430617   -0.4493255145   -0.9682059043
H        0.5290527683   -0.2797114717    0.1937631973
H        1.5096753117   -1.5891225844    0.9049838971
H        0.3757029854   -1.9450773849   -0.4175654211
H        5.7178315298   -1.9546819462   -2.1537209524
18   

C        4.5835772850    1.4192453660    0.7159824667
C        5.8196758833    1.0350877718    0.2056009314
C        3.4274337081    0.7374722381    0.3308361422
C        5.8923149122   -0.0385823097   -0.6816355547
C        3.4775569990   -0.3374059328   -0.5740333023
C        4.7408728787   -0.7331548571   -1.0722099777
C        2.2133872515   -1.0303569648   -0.9864765866
C        1.0417879548   -1.1232560152   -0.0166609440
O        2.0871653499   -1.5527736810   -2.0846796626
O        4.8852395302   -1.7982323526   -1.9131808750
H        4.5182739460    2.2512634817    1.4082164946
H        6.7196012481    1.5650085519    0.4989939074
H        2.4786211192    1.0704573340    0.7366379940
H        6.8609845589   -0.3357967425   -1.0636759987
H        0.4724502105   -0.1903916496   -0.0333952665
H        1.4082762264   -1.3093422834    0.9963624423
H        0.3833765732   -1.9470382389   -0.3067165477
H        5.7950578706   -1.8535151922   -2.2456170711
18   

C        4.6214992096    1.3787502377    0.7180748379
C        5.8394520060    1.0412665641    0.1398855593
C        3.4647988220    0.6795402156    0.3686603171
C        5.8931476973   -0.0017984079   -0.7823601742
C        3.4892121383   -0.3712249734   -0.5686232400
C        4.7419647842   -0.7144888780   -1.1408042534
C        2.2250232610   -1.0910941863   -0.9251415909
C        0.9914041154   -0.9742954683   -0.0362386900
O        2.1364666913   -1.8138890230   -1.9086446949
O        4.8863954699   -1.7393736181   -2.0302324438
H        4.5702294365    2.1877301682    1.4382607115
H        6.7400149603    1.5838507224    0.4070426408
H        2.5367772968    0.9843470841    0.8384526380
H        6.8492392329   -0.2606649952   -1.2199863302
H        0.5366195886    0.0119413582   -0.1600430279
H        1.2678283243   -1.1239015813    1.0107683172
H        0.2582155029   -1.7370787122   -0.3140116857
H        5.7972119905   -1.7843890326   -2.3606694025
18   

C        4.6296202576    1.3631532865    0.7326780836
C        5.8322210026    1.0850054114    0.0954479188
C        3.4864214599    0.6250096212    0.4213919426
C        5.8829992111    0.0661336116   -0.8527021670
C        3.5073892624   -0.4113221858   -0.5332159435
C        4.7452477003   -0.6839013712   -1.1766023853
C        2.2589105601   -1.1798849009   -0.8387197265
C        0.9501184588   -0.8554562636   -0.1252579717
O        2.2285397163   -2.0876898648   -1.6594186106
O        4.8890447470   -1.6621175232   -2.1171676888
H        4.5801026652    2.1545145353    1.4723129191
H        6.7226539449    1.6565256637    0.3347969064
H        2.5753351712    0.8835832045    0.9479429852
H        6.8262921097   -0.1410761991   -1.3425123710
H        0.6576803790    0.1772105984   -0.3326072780
H        1.0667113890   -0.9982218670    0.9522111859
H        0.1566422441   -1.5196106946   -0.4802647813
H        5.8023441571   -1.6989138392   -2.4413922265
