30   

C       -1.4854495883    0.9634570674    0.9076649836
C       -1.2341565550   -0.2557729545    1.5397197026
C       -0.5037057393    1.5386457593    0.0991575969
C        5.5528355827    1.2263095945   -1.2597804529
C       -0.0016993567   -0.8969106170    1.3688503563
C        0.7285133260    0.8985446773   -0.0723262882
C        5.1995652863    0.0113284401   -1.8384494492
C        4.8896724601    1.6546003433   -0.1147636253
C        1.0067420072   -0.3261700446    0.5726806518
C        3.4642495892   -0.3164043582   -0.1651246874
C        4.1827639918   -0.7788850101   -1.2957702869
C        3.8575028416    0.8967287013    0.4419743516
C        2.2913810884   -1.0575555883    0.3842140039
C        3.8259363854   -3.1611583799   -1.1471084398
C        3.5598034388   -3.1145705439    0.3600486536
N        2.3393171711   -2.3409427956    0.6754396774
N        3.9382354366   -2.0142884379   -1.8967849165
O        3.9824478792   -4.2220751762   -1.7310544884
F        3.2554270151    1.3460256128    1.5678909564
H       -2.4412432919    1.4580468249    1.0395463060
H       -1.9960911192   -0.7101708902    2.1628123483
H       -0.6985469401    2.4799549862   -0.4020478371
H        6.3487013668    1.8259582712   -1.6892912674
H        0.1592920813   -1.8455300607    1.8701540184
H        1.4601591030    1.3604468429   -0.7250840335
H        5.7387435664   -0.3302957206   -2.7145526911
H        5.1701040492    2.5883986470    0.3580412986
H        3.4378082608   -4.1412078976    0.7163538091
H        4.4288074643   -2.6890521642    0.8697744444
H        4.2578054414   -2.1997578216   -2.8387603882
30   

C       -1.4479565607    1.0163148113    0.9392907058
C       -1.1304369359   -0.1085335887    1.7044525337
C       -0.5603876453    1.4587883847   -0.0441764125
C        5.5529696946    1.2402755122   -1.1688076170
C        0.0729570879   -0.7897681393    1.4875012855
C        0.6425580213    0.7778034182   -0.2605652992
C        5.2415842883    0.0296099316   -1.7791363242
C        4.8295067633    1.6471573109   -0.0532962454
C        0.9777853201   -0.3570938044    0.5053286860
C        3.4370081711   -0.3438618499   -0.1901524682
C        4.2097048886   -0.7797012502   -1.2961179776
C        3.7816770202    0.8705276960    0.4450478209
C        2.2481215831   -1.1034158293    0.2910800637
C        3.8355682982   -3.1682462576   -1.2352281260
C        3.4986721863   -3.1685023351    0.2576073945
N        2.2729853074   -2.3937338664    0.5478949271
N        3.9980393070   -1.9997425061   -1.9402435118
O        4.0098046366   -4.2111106954   -1.8459847249
F        3.1218682057    1.3034411897    1.5447165473
H       -2.3810998829    1.5423253996    1.1068896287
H       -1.8174069858   -0.4568559480    2.4673167855
H       -0.8048844577    2.3290114560   -0.6426234633
H        6.3606994245    1.8548958072   -1.5525383006
H        0.2991932618   -1.6620182945    2.0918488219
H        1.3134056604    1.1322469464   -1.0353742730
H        5.8234835037   -0.2919055617   -2.6352814390
H        5.0738282637    2.5793751534    0.4421042502
H        3.3520324033   -4.2052822107    0.5729378974
H        4.3474183589   -2.7696568912    0.8202498695
H        4.3615299415   -2.1589749561   -2.8710543592
30   

C       -1.4080195578    1.0523479797    0.9474832228
C       -0.9993839548    0.0430000963    1.8235620609
C       -0.6373292786    1.3465882354   -0.1803383933
C        5.5647430735    1.2492398831   -1.0697716822
C        0.1766908086   -0.6726767159    1.5705439685
C        0.5382039604    0.6303895115   -0.4314262721
C        5.2886595629    0.0489617288   -1.7159582223
C        4.7894243131    1.6307210520    0.0191625177
C        0.9550072189   -0.3946449240    0.4381513116
C        3.4220056168   -0.3697718904   -0.2112912901
C        4.2425910613   -0.7763596942   -1.2943038401
C        3.7269024053    0.8380621363    0.4574800971
C        2.2192823203   -1.1462883211    0.2003763477
C        3.8577870142   -3.1673722865   -1.3252329677
C        3.4581689340   -3.2159915731    0.1506819625
N        2.2274611808   -2.4423650610    0.4213002019
N        4.0611384594   -1.9776572928   -1.9819777830
O        4.0499600769   -4.1901887921   -1.9638163414
F        3.0181545718    1.2502443737    1.5343559661
H       -2.3195856813    1.6058051216    1.1430525794
H       -1.5931741419   -0.1870675334    2.7008615876
H       -0.9498526611    2.1302203222   -0.8611096508
H        6.3834913051    1.8767095590   -1.4064253108
H        0.4846193568   -1.4526878947    2.2589333891
H        1.1292072433    0.8694833180   -1.3088872937
H        5.9080327625   -0.2505286509   -2.5535838771
H        5.0035649515    2.5560940959    0.5406418193
H        3.2922283709   -4.2619415422    0.4233153793
H        4.2859741342   -2.8440968542    0.7609336946
H        4.4643680822   -2.1090528070   -2.9007114110
30   

C       -1.3746513508    1.0758047486    0.9324059463
C       -0.8515927517    0.2233017529    1.9089082161
C       -0.7361986617    1.1874672204   -0.3057865608
C        5.5859744179    1.2530609957   -0.9538268651
C        0.3055413916   -0.5188820414    1.6451010390
C        0.4204533684    0.4442044688   -0.5661710293
C        5.3296191098    0.0716230455   -1.6408519941
C        4.7787830104    1.6039732551    0.1217443872
C        0.9461565219   -0.4278208822    0.4029578978
C        3.4219240389   -0.3918800853   -0.2007514707
C        4.2726855991   -0.7654885797   -1.2729908173
C        3.7050632706    0.7992553872    0.5078699958
C        2.2093964419   -1.1829946519    0.1494472314
C        3.8785603004   -3.1541960632   -1.4019692726
C        3.4354039131   -3.2565767229    0.0583522908
N        2.2028351891   -2.4848504335    0.3249493788
N        4.1090555144   -1.9421832282   -2.0066538073
O        4.0822830005   -4.1531109926   -2.0738956455
F        2.9680319560    1.1848788716    1.5751662735
H       -2.2711412612    1.6505605762    1.1360417778
H       -1.3408633757    0.1370211580    2.8723941978
H       -1.1355490416    1.8513917080   -1.0640356727
H        6.4129769009    1.8902802991   -1.2494475695
H        0.7086348332   -1.1750342574    2.4091235423
H        0.9148669194    0.5426026565   -1.5265199355
H        5.9721423688   -0.2029848845   -2.4695046965
H        4.9760172394    2.5153390371    0.6736338717
H        3.2548051277   -4.3110158551    0.2851805474
H        4.2477479076   -2.9151175131    0.7059856253
H        4.5385342792   -2.0421884035   -2.9174254589
30   

C       -1.3916775637    1.0869787735    0.8892939886
C       -0.7309605071    0.4670978387    1.9534269656
C       -0.8886674611    0.9585195406   -0.4079758456
C        5.6274699891    1.2245429400   -0.8277636668
C        0.4282221942   -0.2815938622    1.7183203077
C        0.2705477166    0.2090765381   -0.6375329295
C        5.3444618764    0.0817796488   -1.5668218401
C        4.8311092792    1.5415940496    0.2657062405
C        0.9367403781   -0.4283160278    0.4227237435
C        3.4308166150   -0.4093865093   -0.1413538925
C        4.2715069817   -0.7493706204   -1.2335838035
C        3.7417598739    0.7426649938    0.6189769558
C        2.2006859716   -1.1926485338    0.1667090963
C        3.8312837571   -3.1212432493   -1.4766307133
C        3.3800951584   -3.2848888039   -0.0245679548
N        2.1621537259   -2.5007879194    0.2705530438
N        4.0823493044   -1.8858078061   -2.0227714980
O        4.0180394988   -4.0901705170   -2.1957424392
F        3.0205464826    1.0968930834    1.7064060769
H       -2.2901847854    1.6662965851    1.0698187653
H       -1.1153221226    0.5659183352    2.9622006635
H       -1.3955290283    1.4397114569   -1.2367088884
H        6.4661276493    1.8579844441   -1.0975003438
H        0.9371390445   -0.7580792073    2.5491850315
H        0.6582334162    0.1178486779   -1.6463833706
H        5.9781051821   -0.1669356593   -2.4103402105
H        5.0489250698    2.4225998262    0.8576809349
H        3.1761412302   -4.3449151495    0.1505232981
H        4.1958546445   -2.9913651187    0.6419642536
H        4.5098129079   -1.9500424492   -2.9377094152
30   

C       -1.2749173422    0.7195761016    0.6763969318
C       -0.4807091349    0.4407225870    1.7910274860
C       -0.8366929577    0.3437829877   -0.5949560581
C        5.8629401756    1.3333159488   -0.7000652944
C        0.7486887373   -0.2099599020    1.6321441983
C        0.3933071171   -0.3055744658   -0.7464269069
C        5.5994203765    0.2441960653   -1.5210353410
C        5.0835580807    1.5337792065    0.4315783242
C        1.2052906993   -0.5911517019    0.3652192855
C        3.7296417080   -0.4215961943   -0.1028574088
C        4.5609082256   -0.6454844234   -1.2335427736
C        4.0275495069    0.6743620564    0.7422024698
C        2.5272318271   -1.2719643713    0.1447278193
C        4.2256311593   -3.0085349106   -1.6420397749
C        3.7892460909   -3.2941871067   -0.2044858168
N        2.5376968494   -2.5846372592    0.1340294917
N        4.3994505777   -1.7260517547   -2.1034189055
O        4.4562694193   -3.9142214436   -2.4277864980
F        3.3335548174    0.9184132580    1.8739182368
H       -2.2284633113    1.2210979331    0.7978634804
H       -0.8185074402    0.7235451323    2.7815121530
H       -1.4493085894    0.5528374451   -1.4646073543
H        6.6746662556    2.0138583731   -0.9352457848
H        1.3423307232   -0.4372392272    2.5104426810
H        0.7251297356   -0.5954741747   -1.7376562314
H        6.2221666421    0.0834202351   -2.3935177818
H        5.2893008785    2.3702919719    1.0888250186
H        3.6313795357   -4.3715891834   -0.1036275115
H        4.5920046043   -3.0105021461    0.4818089666
H        4.8163817890   -1.7047165060   -3.0251827142
30   

C       -1.3051611953    0.6953300647    0.5625808600
C       -0.4303057676    0.7247488810    1.6494538908
C       -0.9341120163    0.0198657327   -0.5996822724
C        5.9230808640    1.3024174179   -0.5798963869
C        0.8148485308    0.0883425282    1.5708807315
C        0.3112415820   -0.6123691135   -0.6717403436
C        5.5590143013    0.3103057862   -1.4807243867
C        5.2456551023    1.4014519939    0.6281012163
C        1.2153879045   -0.5823349093    0.4074991836
C        3.7654880521   -0.4308156642    0.0001048458
C        4.5119771267   -0.5713173503   -1.2010169339
C        4.1846278613    0.5459017723    0.9340782194
C        2.5418808964   -1.2651962186    0.2249849833
C        4.1328262022   -2.8918801204   -1.7479467429
C        3.7603263618   -3.2714686172   -0.3124297121
N        2.5287145307   -2.5739395070    0.1134391128
N        4.2694075468   -1.5797055109   -2.1362035189
O        4.3268438447   -3.7442781574   -2.6004004103
F        3.6198625096    0.6665326308    2.1514673646
H       -2.2706352314    1.1848092821    0.6244528776
H       -0.7210832707    1.2309860277    2.5629283947
H       -1.6100845973   -0.0179150100   -1.4464254699
H        6.7400597098    1.9787288132   -0.8090456893
H        1.4303381600    0.0886771836    2.4587707358
H        0.5872100423   -1.1362425183   -1.5809638674
H        6.1125151522    0.2151433737   -2.4077987525
H        5.5406996771    2.1511301033    1.3526514040
H        3.5958451575   -4.3519328598   -0.2748282282
H        4.5930165977   -3.0368091856    0.3566224642
H        4.6342084962   -1.4980923775   -3.0764901577
30   

C       -1.3625089960    0.6233421274    0.5240599761
C       -0.3881175944    0.9395205881    1.4703369013
C       -1.0663489576   -0.2914057020   -0.4843303769
C        5.9468424515    1.3164321272   -0.4267222619
C        0.8805870571    0.3491092431    1.4055235977
C        0.2015116544   -0.8777171055   -0.5442843283
C        5.5133830453    0.4476387655   -1.4217472587
C        5.3468354952    1.2665823525    0.8267375952
C        1.2103537855   -0.5631871582    0.3913634498
C        3.7753018618   -0.4187882330    0.0482782042
C        4.4619223645   -0.4423222030   -1.1911358341
C        4.2842845075    0.3958270209    1.0824582340
C        2.5378759208   -1.2458880739    0.2399356253
C        4.0633445787   -2.7106971742   -1.8922530432
C        3.7487705699   -3.1995614326   -0.4722573003
N        2.5262810295   -2.5458535694    0.0429011642
N        4.1712918628   -1.3707202056   -2.1925704846
O        4.2301327084   -3.4983959964   -2.8102369821
F        3.8123721636    0.3195771582    2.3448001943
H       -2.3445890074    1.0798810654    0.5757398900
H       -0.6164606711    1.6415533375    2.2642727213
H       -1.8176882791   -0.5514620741   -1.2213776053
H        6.7668222283    2.0011554609   -0.6168991353
H        1.5747777750    0.6201617959    2.1833147501
H        0.4101445245   -1.5907015889   -1.3353611318
H        6.0202600916    0.4488320292   -2.3798410765
H        5.7099855389    1.9023588474    1.6253861437
H        3.5939148061   -4.2815464306   -0.5068902220
H        4.6031090535   -3.0056807347    0.1825785132
H        4.4988628195   -1.2184200234   -3.1377162311
30   

C       -1.3953841294    0.5925437957    0.5638240501
C       -0.3302353019    1.1088879280    1.2999668893
C       -1.1811347960   -0.4974083041   -0.2763561394
C        5.9682367876    1.3169304659   -0.2931118755
C        0.9455428988    0.5403426082    1.1948234301
C        0.0938542899   -1.0624115636   -0.3772736235
C        5.5344094819    0.5144056097   -1.3435631564
C        5.3546231719    1.2007044082    0.9505769648
C        1.1951930337   -0.5529891977    0.3490428314
C        3.7675022691   -0.4052246380    0.0524995867
C        4.4685577136   -0.3724480521   -1.1760301761
C        4.2765556248    0.3322964407    1.1412333066
C        2.5225424563   -1.2307163947    0.1990942365
C        4.0686037048   -2.6046110348   -1.9747994735
C        3.7524361823   -3.1510448016   -0.5747129106
N        2.5242452278   -2.5254249898   -0.0369215359
N        4.1827791888   -1.2533609463   -2.2201466405
O        4.2368902106   -3.3552797608   -2.9230890170
F        3.7789200784    0.1807463471    2.3896761799
H       -2.3825249212    1.0335996326    0.6451181678
H       -0.4908708051    1.9559768582    1.9572009644
H       -2.0019192777   -0.9105721392   -0.8516893254
H        6.8004194474    1.9989145384   -0.4337454393
H        1.7216074972    0.9975604979    1.7868066429
H        0.2275000746   -1.9128753788   -1.0378659198
H        6.0538990194    0.5616287291   -2.2937169322
H        5.7191490079    1.7804810457    1.7901747550
H        3.6042134013   -4.2317048857   -0.6524565352
H        4.6038622659   -2.9790512610    0.0899753764
H        4.5168879906   -1.0619793186   -3.1558356067
30   

C       -1.4013460307    0.6020697538    0.6177996290
C       -0.2712514707    1.2484955335    1.1151513999
C       -1.2580971580   -0.6192117199   -0.0359368002
C        5.9829394243    1.3016237928   -0.1745741051
C        0.9979020472    0.6771238559    0.9595581623
C        0.0105146814   -1.1873411705   -0.1882290803
C        5.5796050246    0.5336740406   -1.2628596012
C        5.3173630204    1.1646528840    1.0401718223
C        1.1767213221   -0.5509647835    0.3009932529
C        3.7504551548   -0.3999427001    0.0392127777
C        4.4971497086   -0.3432090244   -1.1608125007
C        4.2208436180    0.3077770889    1.1644246743
C        2.5016625607   -1.2251632483    0.1332735185
C        4.1046175603   -2.5465402425   -2.0356940841
C        3.7521176662   -3.1282377827   -0.6588442523
N        2.5127350599   -2.5148090403   -0.1321467477
N        4.2388702987   -1.1905112517   -2.2388225614
O        4.2928097854   -3.2722646838   -2.9995577607
F        3.6488381112    0.1502396189    2.3812431015
H       -2.3835154257    1.0454656214    0.7375044265
H       -0.3756424589    2.2009419298    1.6223544576
H       -2.1295589059   -1.1324433890   -0.4265154424
H        6.8291173319    1.9749399355   -0.2643953167
H        1.8282619217    1.2454604080    1.3499594848
H        0.0807260969   -2.1413339802   -0.7002583536
H        6.1360171678    0.5992847484   -2.1907743243
H        5.6523780406    1.7211210109    1.9074277820
H        3.6040526578   -4.2060786173   -0.7690387497
H        4.5876412932   -2.9766135420    0.0304968372
H        4.6018508017   -0.9749332017   -3.1583576822
30   

C       -1.3883054439    0.6303815908    0.6684343806
C       -0.2218460388    1.3520084533    0.9164630712
C       -1.2969222091   -0.6830132587    0.2135501559
C        5.9871165308    1.2652444223   -0.0644504689
C        1.0321794345    0.7632588111    0.7118254896
C       -0.0433015796   -1.2687769944    0.0110986153
C        5.6288853286    0.5164344844   -1.1815423747
C        5.2559186704    1.1277191025    1.1116156734
C        1.1572832009   -0.5583686788    0.2527167738
C        3.7284524726   -0.4144806634    0.0166424526
C        4.5319507711   -0.3479800705   -1.1462783412
C        4.1434907541    0.2849391115    1.1693195506
C        2.4754256581   -1.2336682763    0.0526186938
C        4.1432381562   -2.5223290397   -2.0948393559
C        3.7323961436   -3.1320832977   -0.7477993550
N        2.4839596312   -2.5162820992   -0.2460087649
N        4.3106682670   -1.1650822339   -2.2551505787
O        4.3575593408   -3.2261346488   -3.0694412275
F        3.4859945863    0.1475786678    2.3448119064
H       -2.3589214648    1.0871243478    0.8261507447
H       -0.2865279019    2.3762978631    1.2656486265
H       -2.1972695155   -1.2541271696    0.0171049190
H        6.8452122859    1.9283058826   -0.1030099380
H        1.8928856217    1.3894690850    0.8988861459
H       -0.0149179772   -2.2950595248   -0.3395321166
H        6.2308091054    0.5885058197   -2.0801229059
H        5.5480804467    1.6759655201    1.9994096409
H        3.5745252199   -4.2046225823   -0.8910530497
H        4.5450275033   -3.0100410240   -0.0260194529
H        4.7143405491   -0.9317746517   -3.1531534859
30   

C       -1.3666754630    0.6558655346    0.7264520779
C       -0.1966050942    1.4144007026    0.7282205409
C       -1.2970179256   -0.7120772303    0.4692624023
C        5.9774101813    1.2272844557    0.0311075732
C        1.0397534285    0.8075293991    0.4757963760
C       -0.0606965228   -1.3159278821    0.2182128756
C        5.6694266061    0.4891365129   -1.1077300401
C        5.1817347538    1.0958375029    1.1648332810
C        1.1405478513   -0.5688355882    0.2159807932
C        3.7055330177   -0.4373717280   -0.0122069439
C        4.5638132355   -0.3647566859   -1.1360101525
C        4.0597434786    0.2642999381    1.1603424822
C        2.4475223083   -1.2448981690   -0.0352086912
C        4.1704813781   -2.5062135115   -2.1634554320
C        3.6947346946   -3.1441375101   -0.8530102554
N        2.4432283027   -2.5174969459   -0.3735287760
N        4.3811214886   -1.1509839372   -2.2739576352
O        4.4066295310   -3.1859348842   -3.1500156536
F        3.3293372711    0.1457699127    2.2938345702
H       -2.3240178891    1.1262213463    0.9209569007
H       -0.2455320326    2.4800116640    0.9214091472
H       -2.2007815640   -1.3108618061    0.4642285271
H        6.8428556919    1.8817962593    0.0410448967
H        1.9088944337    1.4523310799    0.4651590019
H       -0.0443421227   -2.3835744182    0.0261718017
H        6.3155495254    0.5642407409   -1.9748278708
H        5.4284342703    1.6419974553    2.0676124467
H        3.5193111916   -4.2080823752   -1.0347826041
H        4.4830554844   -3.0626967080   -0.0992971078
H        4.8270605716   -0.9016411814   -3.1473338110
30   

C       -1.3429743691    0.6747019701    0.7788437698
C       -0.2022164701    1.4436071501    0.5455430197
C       -1.2602965792   -0.7161632285    0.7161042583
C        5.9605389049    1.1976762239    0.1148703324
C        1.0184729035    0.8235883441    0.2530448900
C       -0.0392795644   -1.3331217182    0.4242618259
C        5.6995578391    0.4684049532   -1.0410559955
C        5.1088830469    1.0719600975    1.2073481674
C        1.1291328790   -0.5746078033    0.1911146548
C        3.6845206585   -0.4559019296   -0.0397823521
C        4.5897519399   -0.3764184631   -1.1268093892
C        3.9819066924    0.2497284762    1.1470054831
C        2.4217998663   -1.2480046602   -0.1205837588
C        4.1846864666   -2.4796944510   -2.2377649012
C        3.6486950862   -3.1475975022   -0.9678255501
N        2.3993835417   -2.5080184521   -0.5008540462
N        4.4420521328   -1.1299933364   -2.2919319734
O        4.4346835742   -3.1314684665   -3.2396223229
F        3.1942199847    0.1433539520    2.2425923280
H       -2.2887789419    1.1545951926    1.0040251387
H       -0.2627907889    2.5252037862    0.5864822790
H       -2.1421462523   -1.3215648617    0.8925826889
H        6.8297524346    1.8450098830    0.1687057083
H        1.8735547062    1.4601679393    0.0585675003
H       -0.0039650913   -2.4166992699    0.3822246407
H        6.3835518395    0.5470978976   -1.8782782874
H        5.3141758501    1.6162898711    2.1215320191
H        3.4527899241   -4.1996631661   -1.1927586947
H        4.4146464800   -3.1136046422   -0.1879218532
H        4.9254156001   -0.8643404055   -3.1402509479
30   

C       -1.3258189432    0.6897532644    0.8275277311
C       -0.2425821410    1.4405038417    0.3661333123
C       -1.1988098148   -0.6934571834    0.9663566629
C        5.9463827361    1.1518968474    0.2131721873
C        0.9659650511    0.8097103227    0.0480803237
C        0.0102744167   -1.3213091625    0.6483069754
C        5.7239193492    0.4295148054   -0.9547458525
C        5.0471695147    1.0369086079    1.2675363718
C        1.1181926578   -0.5779453543    0.1932471059
C        3.6627337429   -0.4808333631   -0.0367872791
C        4.6087213593   -0.4018729809   -1.0896223080
C        3.9141332873    0.2282139122    1.1594328337
C        2.3944551000   -1.2527502402   -0.1713677642
C        4.1865382640   -2.4686314163   -2.2722605678
C        3.5941555918   -3.1580667007   -1.0407631346
N        2.3504091633   -2.5011039856   -0.5840932448
N        4.4905331867   -1.1281932708   -2.2756282732
O        4.4459791464   -3.0965848411   -3.2868098303
F        3.0802259673    0.1367987510    2.2216381126
H       -2.2627950277    1.1773229254    1.0722364483
H       -0.3394756649    2.5139142925    0.2496303658
H       -2.0374978588   -1.2837457077    1.3176774583
H        6.8199859028    1.7889924623    0.3046700815
H        1.7851464629    1.4159629883   -0.3224203786
H        0.0888486627   -2.3980525680    0.7563072376
H        6.4404175718    0.5064741126   -1.7644828738
H        5.2187321341    1.5799378381    2.1894052588
H        3.3764599633   -4.1967904768   -1.3044027162
H        4.3385517003   -3.1703025739   -0.2396772277
H        5.0080327161   -0.8527294513   -3.1003818706
30   

C       -1.3046330539    0.6989602387    0.8457330579
C       -0.3092788133    1.4099367418    0.1702007165
C       -1.0972395779   -0.6433394928    1.1725694743
C        5.9614732492    1.1062704775    0.2981797825
C        0.8932033564    0.7807096556   -0.1727417035
C        0.1057530479   -1.2697547653    0.8289732160
C        5.7649611429    0.4110741025   -0.8903529932
C        5.0254037103    0.9884173688    1.3191245206
C        1.1242359914   -0.5607883036    0.1655193635
C        3.6625071069   -0.4870004501   -0.0558214265
C        4.6411742315   -0.3982351984   -1.0784190143
C        3.8834516055    0.2011599889    1.1593806010
C        2.3878584588   -1.2329274708   -0.2481526963
C        4.2005237654   -2.4127237859   -2.3492408755
C        3.5593128218   -3.1334653123   -1.1618021495
N        2.3227951828   -2.4643636623   -0.7038321390
N        4.5443204165   -1.0836140329   -2.2907567759
O        4.4674123615   -3.0066836164   -3.3821257749
F        3.0153280476    0.1091608894    2.1937211286
H       -2.2372974303    1.1847196797    1.1097212111
H       -0.4707026009    2.4490640635   -0.0930932178
H       -1.8696283907   -1.2029322994    1.6878245345
H        6.8417093297    1.7268126981    0.4305445614
H        1.6502888783    1.3434266020   -0.7081067166
H        0.2526270519   -2.3160371123    1.0754764605
H        6.5073314847    0.4943559852   -1.6757739603
H        5.1741372289    1.5130832068    2.2554634004
H        3.3211013532   -4.1544525533   -1.4728005078
H        4.2840107337   -3.1986718389   -0.3453995802
H        5.0913877832   -0.7917866869   -3.0904439585
30   

C       -1.3150899600    0.7057047967    0.8560803663
C       -0.4309264570    1.3345403753   -0.0254431223
C       -0.9981887685   -0.5512243184    1.3786944841
C        5.9757530700    1.0336770211    0.4057141878
C        0.7711076543    0.7097294566   -0.3780236384
C        0.2041416544   -1.1732932128    1.0246649382
C        5.7914925766    0.3727484379   -0.8038405372
C        5.0139894395    0.9117914148    1.4016349740
C        1.1110176950   -0.5398070123    0.1575497092
C        3.6531758908   -0.5034982204   -0.0379993061
C        4.6554691026   -0.4071123217   -1.0374665431
C        3.8597384676    0.1531815759    1.1975256668
C        2.3687059663   -1.2163693691   -0.2797109710
C        4.1913362837   -2.3670107567   -2.3868403626
C        3.5085567894   -3.1124901355   -1.2390888634
N        2.2813702812   -2.4288239472   -0.7781076999
N        4.5695795503   -1.0511124015   -2.2733179263
O        4.4619409368   -2.9298621189   -3.4360286733
F        2.9683922230    0.0574815223    2.2113549268
H       -2.2476221229    1.1875024876    1.1276755288
H       -0.6791136002    2.3045664153   -0.4409378573
H       -1.6858784473   -1.0485633469    2.0531664085
H        6.8652584089    1.6321444673    0.5730248805
H        1.4443047680    1.2003684570   -1.0726896526
H        0.4385338727   -2.1561968359    1.4191451086
H        6.5523257452    0.4611702235   -1.5707950559
H        5.1515770841    1.4115512402    2.3531567915
H        3.2499380597   -4.1147920305   -1.5918128195
H        4.2156960623   -3.2267628756   -0.4127721580
H        5.1405719000   -0.7461993854   -3.0511085304
30   

C       -1.3380821586    0.7475584148    0.8333239603
C       -0.5734163489    1.2320260389   -0.2323596556
C       -0.9009377320   -0.3694990768    1.5512485378
C        5.9911151736    0.9683624010    0.5318686253
C        0.6306379848    0.6048018914   -0.5737384607
C        0.3028270101   -0.9947173461    1.2075532220
C        5.8052675779    0.3605435188   -0.7046401449
C        5.0193894750    0.8227411247    1.5144656900
C        1.0910485077   -0.4983622295    0.1556522339
C        3.6456737061   -0.5101658929    0.0090855299
C        4.6580371348   -0.3892652815   -0.9783584218
C        3.8538601411    0.0933528928    1.2712674600
C        2.3503728990   -1.1873814446   -0.2767086218
C        4.1722137760   -2.2801346263   -2.4165334895
C        3.4607073962   -3.0606911008   -1.3106841779
N        2.2426275464   -2.3703711537   -0.8363034166
N        4.5718734823   -0.9774290045   -2.2418926872
O        4.4438302777   -2.8014245418   -3.4867231736
F        2.9551129532   -0.0262796959    2.2750694820
H       -2.2719680576    1.2312065134    1.0968671551
H       -0.9163326338    2.0903117785   -0.7988958954
H       -1.4968252268   -0.7565940087    2.3699243038
H        6.8889471880    1.5446272914    0.7297759605
H        1.2109308791    0.9777420181   -1.4107738999
H        0.6309902569   -1.8717472233    1.7547292535
H        6.5732258325    0.4678736639   -1.4620048829
H        5.1576407161    1.2816588768    2.4862325266
H        3.1853940217   -4.0408202107   -1.7100138682
H        4.1547976272   -3.2255442154   -0.4818720845
H        5.1561357391   -0.6493652091   -3.0001606961
30   

C       -1.3592838110    0.7318280700    0.7412166354
C       -0.7068330619    0.9998997130   -0.4659975061
C       -0.8052419350   -0.1813209051    1.6432703005
C        6.0146301747    0.8814941440    0.6285562481
C        0.5047877718    0.3655113329   -0.7641132626
C        0.4053321080   -0.8158825023    1.3427803706
C        5.8049790941    0.3500781079   -0.6381855442
C        5.0630962436    0.6724413197    1.6186493413
C        1.0873620597   -0.5235980986    0.1491803092
C        3.6572194063   -0.5665734835    0.0614889492
C        4.6532724216   -0.3838355678   -0.9346528658
C        3.8929819514   -0.0423779461    1.3542806934
C        2.3549684202   -1.2225114471   -0.2563019269
C        4.1617313905   -2.1933387438   -2.4691870074
C        3.4562563183   -3.0332228964   -1.4038329016
N        2.2406257008   -2.3635777262   -0.8955477113
N        4.5483755857   -0.8970925099   -2.2291686847
O        4.4305494464   -2.6553703036   -3.5669669501
F        3.0214639009   -0.2253688397    2.3700711066
H       -2.2983180747    1.2220972484    0.9722643517
H       -1.1425821631    1.6946754300   -1.1749746124
H       -1.3169174760   -0.4050071906    2.5724220435
H        6.9154446469    1.4468000275    0.8437505237
H        0.9968043571    0.5658102111   -1.7098795352
H        0.8150293713   -1.5431783976    2.0349200260
H        6.5579894464    0.5049072743   -1.4023098497
H        5.2211189811    1.0701164599    2.6141007215
H        3.1785342199   -3.9905470447   -1.8536064714
H        4.1523900291   -3.2406758768   -0.5863815493
H        5.1221315808   -0.5236833412   -2.9743605753
30   

C       -1.3743741708    0.7201765613    0.6212146687
C       -0.8269816626    0.7176002859   -0.6641960349
C       -0.7135101522    0.0563806804    1.6581147735
C        6.0545229562    0.7935955357    0.6739234269
C        0.3906604434    0.0718642845   -0.9058593123
C        0.5029541510   -0.5923681966    1.4155291825
C        5.7823688822    0.3795633199   -0.6233673588
C        5.1635824767    0.4708192778    1.6887208241
C        1.0926369648   -0.5527874913    0.1381022851
C        3.6785600564   -0.6269425460    0.0971031487
C        4.6244265613   -0.3417355666   -0.9250507520
C        3.9881747557   -0.2346694417    1.4209643550
C        2.3643464633   -1.2594825517   -0.2413071938
C        4.1225818889   -2.0491005524   -2.5602321459
C        3.4617457994   -2.9719544079   -1.5345144433
N        2.2481124326   -2.3499953033   -0.9647124811
N        4.4683866274   -0.7556919282   -2.2495938020
O        4.3757730200   -2.4333232972   -3.6912322725
F        3.1949682166   -0.5433521350    2.4662303590
H       -2.3176093991    1.2205397963    0.8096399284
H       -1.3480043352    1.2110336670   -1.4768033902
H       -1.1510048835    0.0305483621    2.6496699882
H        6.9594266139    1.3505794307    0.8936423950
H        0.7993195691    0.0621568420   -1.9109262225
H        0.9566987831   -1.1507897865    2.2236203791
H        6.4926843554    0.6136667885   -1.4079358976
H        5.3757254843    0.7686149955    2.7087011704
H        3.1883093092   -3.9033556119   -2.0380900469
H        4.1799662447   -3.2167810708   -0.7470063086
H        5.0059826600   -0.3170753874   -2.9861488116
30   

C       -1.3457797734    0.7960252746    0.5082822191
C       -0.9576196371    0.4088692049   -0.7749736913
C       -0.5347622828    0.4817743271    1.6001697012
C        6.0158710301    0.6980364465    0.7981090482
C        0.2400330362   -0.2886128289   -0.9646328797
C        0.6642561988   -0.2163795223    1.4124873991
C        5.6760261089    0.4816799718   -0.5326810079
C        5.2211508751    0.1509172893    1.7997065892
C        1.0719711900   -0.6146682061    0.1226275039
C        3.6612515128   -0.7072596182    0.1432063242
C        4.5313101728   -0.2423403216   -0.8736555109
C        4.0626630151   -0.5657536425    1.4884966748
C        2.3452140741   -1.3322541737   -0.2156694625
C        4.0592067786   -1.8165789592   -2.6328586105
C        3.4896708912   -2.8690337893   -1.6722104312
N        2.2593781077   -2.3676768798   -1.0221636842
N        4.3262702886   -0.5284178467   -2.2246201862
O        4.2973456205   -2.0874783888   -3.7994220364
F        3.3865047863   -1.1568022560    2.4964912021
H       -2.2742327587    1.3360172163    0.6565538690
H       -1.5839600783    0.6481060413   -1.6269077848
H       -0.8365078170    0.7767877416    2.5988115331
H        6.9096385826    1.2591366105    1.0505429327
H        0.5238714945   -0.5773508078   -1.9715474083
H        1.2383366359   -0.4437208991    2.2957671098
H        6.3271463465    0.8617151400   -1.3114480214
H        5.5031924140    0.2697106281    2.8390676824
H        3.2544783630   -3.7687522944   -2.2475903145
H        4.2452997556   -3.1369883328   -0.9282468335
H        4.8088414229    0.0044118698   -2.9366848670
30   

C       -1.3582635505    0.8061166670    0.4889508745
C       -1.1130410405    0.1681755832   -0.7270749858
C       -0.3953807122    0.7619088422    1.4977191657
C        6.0116309702    0.6151559479    0.9010926557
C        0.0869787650   -0.5221218164   -0.9290982367
C        0.8067840374    0.0733053751    1.2972190123
C        5.6853279276    0.4838866711   -0.4452278544
C        5.1986967322    0.0181833192    1.8602519849
C        1.0590044750   -0.6080423121    0.0866607032
C        3.6489236996   -0.7110058632    0.1371393470
C        4.5360644489   -0.2040318218   -0.8410707782
C        4.0347398643   -0.6617202108    1.4921734488
C        2.3335954269   -1.3137094197   -0.2598973565
C        4.0788837020   -1.6964598160   -2.6696956628
C        3.5100353930   -2.7916062392   -1.7552704210
N        2.2687959079   -2.3284541424   -1.0962625327
N        4.3453788551   -0.4267300932   -2.2054296273
O        4.3231339047   -1.9182637127   -3.8453713117
F        3.3257696686   -1.3032873391    2.4492230466
H       -2.2887003178    1.3401948586    0.6459912164
H       -1.8517304345    0.2089191093   -1.5195660485
H       -0.5766417788    1.2685200929    2.4389154724
H        6.9099261094    1.1473678438    1.1964308769
H        0.2499312114   -0.9957030800   -1.8917539080
H        1.5206118694    0.0984952367    2.1053095031
H        6.3515827032    0.8982367338   -1.1930964316
H        5.4705166301    0.0688489406    2.9078688834
H        3.2886322342   -3.6700758562   -2.3677359927
H        4.2616288335   -3.0826248466   -1.0158938260
H        4.8346398884    0.1363935768   -2.8890247303
30   

C       -1.3836887707    0.7697882018    0.5317954173
C       -1.2454929373   -0.0564410741   -0.5830949583
C       -0.3050224130    0.9429278560    1.3986904504
C        6.0134946493    0.5398607069    0.9952449750
C       -0.0368606442   -0.7195874896   -0.8227335962
C        0.9053282418    0.2819214546    1.1601750033
C        5.7267373591    0.4464562103   -0.3634647469
C        5.1503681833   -0.0470418152    1.9160712637
C        1.0542852004   -0.5929591113    0.0599327243
C        3.6412978568   -0.7031096428    0.1279889030
C        4.5717431929   -0.1993474837   -0.8108607441
C        3.9791767423   -0.6827707435    1.4966308456
C        2.3300522376   -1.2797451729   -0.3125517803
C        4.1329486890   -1.6317039797   -2.6897798251
C        3.5281955322   -2.7392130533   -1.8149845999
N        2.2782586187   -2.2775960410   -1.1711260889
N        4.4159192558   -0.3817325207   -2.1851771472
O        4.3999352709   -1.8282508365   -3.8650282855
F        3.1996961656   -1.2942474917    2.4193033648
H       -2.3206154597    1.2830883993    0.7170009320
H       -2.0748843406   -0.1831908997   -1.2696913482
H       -0.4016991234    1.5997386215    2.2557775687
H        6.9172612764    1.0383861264    1.3300830462
H        0.0303901043   -1.3401562921   -1.7101258394
H        1.7139514742    0.4878488636    1.8457437047
H        6.4280986892    0.8571434892   -1.0806465018
H        5.3855248750   -0.0197312572    2.9734260044
H        3.3098962261   -3.5997841876   -2.4533959811
H        4.2591534792   -3.0581065737   -1.0665098411
H        4.9336742519    0.1893221029   -2.8406271434
30   

C       -1.3959364116    0.7308933937    0.5957828252
C       -1.3379368377   -0.2479745731   -0.3956908574
C       -0.2357910239    1.0821017713    1.2850092882
C        6.0054970638    0.4600395733    1.0702670211
C       -0.1262386659   -0.8839998042   -0.6885068288
C        0.9769444975    0.4480016196    0.9929684203
C        5.7684873823    0.3927557448   -0.2994978429
C        5.0854193648   -0.1021572233    1.9499715993
C        1.0523946150   -0.5748946119    0.0188859514
C        3.6319643123   -0.6998571357    0.0949870440
C        4.6115398636   -0.2088961239   -0.8008861649
C        3.9111388862   -0.6928471465    1.4777068148
C        2.3251406760   -1.2411842249   -0.3933222778
C        4.1878534651   -1.5711519711   -2.7363981868
C        3.5281726949   -2.6843157535   -1.9122795642
N        2.2747767550   -2.2100986829   -1.2848718556
N        4.4983251083   -0.3492008033   -2.1841569680
O        4.4826537148   -1.7406886685   -3.9092065625
F        3.0601350207   -1.2593828678    2.3651799054
H       -2.3351178640    1.2235349943    0.8212588636
H       -2.2331121050   -0.5152918391   -0.9457389900
H       -0.2715526572    1.8564977859    2.0428674255
H        6.9114562179    0.9241378511    1.4461835762
H       -0.1286518935   -1.6295123253   -1.4765720373
H        1.8500128415    0.7906412196    1.5311086662
H        6.5092233650    0.7914670271   -0.9830851341
H        5.2753325482   -0.0871794953    3.0166626846
H        3.3037915018   -3.5189363944   -2.5822438502
H        4.2300725099   -3.0461126606   -1.1555832730
H        5.0534780841    0.2243295566   -2.8059790107
30   

C       -1.3921573616    0.6951800438    0.6659556308
C       -1.3800389733   -0.4103956397   -0.1848335314
C       -0.1886338769    1.1980901738    1.1601928341
C        5.9903133476    0.3835189272    1.1511297326
C       -0.1686602618   -1.0188420997   -0.5330618207
C        1.0232108263    0.5912566073    0.8125742043
C        5.8114164628    0.3296508052   -0.2278511622
C        5.0107867329   -0.1430158795    1.9869928384
C        1.0564389666   -0.5485410046   -0.0233314457
C        3.6261316705   -0.6973844874    0.0657491627
C        4.6576978949   -0.2288467749   -0.7841514265
C        3.8387605477   -0.6908230680    1.4612232606
C        2.3243245580   -1.1945799769   -0.4736934371
C        4.2491095355   -1.5203840610   -2.7753722099
C        3.5208104848   -2.6291595452   -2.0080182922
N        2.2680658927   -2.1301731965   -1.3995551869
N        4.5946623509   -0.3326046934   -2.1739696378
O        4.5751472957   -1.6660658421   -3.9430942004
F        2.9232363517   -1.2123934782    2.3109448834
H       -2.3312225493    1.1664037578    0.9336931601
H       -2.3112602037   -0.7984569375   -0.5817553864
H       -0.1914830143    2.0672493072    1.8081357414
H        6.8944341514    0.8142451351    1.5688754984
H       -0.2046645742   -1.8703425431   -1.2042860522
H        1.9330444723    1.0388721958    1.1922655099
H        6.5936628832    0.7086277049   -0.8754939767
H        5.1504507194   -0.1317697564    3.0614840751
H        3.2853991593   -3.4329431059   -2.7110925120
H        4.1854343743   -3.0419859823   -1.2438549239
H        5.1931397507    0.2355588107   -2.7594826828
