68

C     -3.97335    1.66069    0.58659
C     -2.60119    1.58241    0.33576
C     -4.09790   -0.74704    0.58786
C     -2.72739   -0.82463    0.33660
C     -4.73703    0.49360    0.71233
C     -1.96278    0.34316    0.20897
C     -7.04799    0.70270   -0.41370
C      0.35844   -0.06555    1.26611
C     -8.02147    1.84470   -0.07852
C      1.30985   -1.16429    0.76274
C     -6.23046    0.55279    0.90565
C     -0.47252    0.27432   -0.00273
C     -7.40631    4.28433    1.87096
C      3.07339   -2.56637   -1.06979
C    -10.15530    1.92765    3.36970
C     -7.88947    2.32568    4.36528
C     -9.47920    4.24342    4.03202
C     -0.03095   -2.23861   -3.42332
C      1.89336   -0.61478   -3.44513
C      2.27330   -3.07038   -3.78784
C     -8.43931    3.15184    1.99720
C      1.62939   -2.21909   -1.46747
C     -8.97300    2.91260    3.44284
C      1.44314   -2.02218   -3.01540
N     -7.99530    1.87993    1.39221
N      1.25937   -1.01345   -0.70477
O     -6.56846    1.70799    1.67395
O     -0.17382   -0.78806   -0.91144
H     -4.45851    2.62614    0.69164
H     -2.02066    2.49754    0.23567
H     -4.67863   -1.66225    0.68727
H     -2.24354   -1.79094    0.22887
H     -7.56807   -0.22908   -0.64868
H     -6.40290    0.95760   -1.25676
H     -0.27708   -0.42864    2.07619
H      0.89708    0.81581    1.62256
H     -7.67906    2.78889   -0.52745
H     -9.04670    1.65099   -0.40547
H      2.33362   -1.02178    1.11209
H      0.95822   -2.16071    1.07559
H     -6.57430   -0.34235    1.44098
H     -0.11096    1.21823   -0.43114
H     -6.56449    4.14153    2.55073
H     -7.86996    5.24971    2.08710
H     -7.00386    4.33332    0.85518
H      3.76290   -1.75878   -1.33484
H      3.40049   -3.47910   -1.56786
H      3.15808   -2.74572    0.00418
H    -10.97638    2.33964    2.76942
H     -9.84494    0.98212    2.91824
H    -10.54740    1.72248    4.37219
H     -7.01860    2.98387    4.44368
H     -7.54109    1.35772    3.99837
H     -8.29478    2.18904    5.37463
H     -8.66215    4.94375    4.22986
H     -9.99295    4.06225    4.98250
H    -10.19282    4.73529    3.35925
H     -0.36974   -3.24233   -3.13877
H     -0.69467   -1.51238   -2.95690
H     -0.13017   -2.15303   -4.51172
H      2.92865   -0.41361   -3.14981
H      1.26219    0.15498   -2.99604
H      1.83197   -0.52115   -4.53557
H      3.35033   -2.90051   -3.70153
H      2.02035   -3.02350   -4.85227
H      2.05811   -4.09007   -3.44582
H     -9.31493    3.43188    1.39626
H      0.97851   -3.05671   -1.15753
