69

C     -9.05991   -3.69523   -2.90864
C     -8.51498   -2.68655   -0.75598
C     -7.76460   -2.62809    0.41640
C     -6.55096   -4.61550   -0.27376
C     -8.27744   -3.69421   -1.70360
C     -7.28604   -4.66551   -1.45255
C     -6.77996   -3.58858    0.64439
C     -6.59771   -3.55487    3.13536
C     -4.62826   -3.46591    1.93492
C      1.66746   -5.25713   -1.09132
C     -0.32389   -3.71903   -1.15928
C     -0.05466   -5.31215    0.63866
C     -0.10373   -2.54676   -0.19512
C      0.22023   -4.19924    1.64741
C     -5.44467   -3.54343    4.14074
C     -5.46143   -4.85412    4.94235
C     -5.54857   -2.31159    5.04917
C      3.89264   -4.89143   -4.27349
C      2.14076   -4.74507   -2.44411
C      3.42078   -5.43830   -2.92300
C     -2.32818   -1.95062    3.62933
C     -0.78810   -1.90229    3.56892
C     -2.89706   -3.38341    3.68256
C     -0.20191   -1.76828    2.16173
C     -7.00749   -5.76201   -2.46112
N     -9.70938   -3.65568   -3.87353
N     -6.01660   -3.54078    1.85299
N     -4.27874   -3.46851    3.23415
N      0.37277   -4.90607   -0.69240
N     -0.47121   -2.92329    1.22470
O     -7.78037   -3.57609    3.38082
O      2.35427   -5.97517   -0.37403
F     -6.04342   -6.60516   -2.01814
F     -8.10652   -6.49990   -2.71156
F     -6.57984   -5.24671   -3.63534
S     -3.60245   -3.37497    0.60293
H     -9.28535   -1.94774   -0.94945
H     -7.94957   -1.84769    1.14650
H     -5.79870   -5.36801   -0.07492
H     -1.39347   -3.93736   -1.25010
H      0.02558   -3.41958   -2.14605
H      0.50472   -6.19914    0.93422
H     -1.12278   -5.55509    0.61563
H      0.94633   -2.24300   -0.18244
H     -0.72410   -1.69004   -0.46776
H     -0.14130   -4.46285    2.64136
H      1.29093   -3.98787    1.70318
H     -4.65974   -4.86463    5.68607
H     -5.34664   -5.72064    4.28544
H     -6.41591   -4.93857    5.46681
H     -4.73891   -2.30683    5.78455
H     -6.49914   -2.34393    5.58642
H     -5.50799   -1.38533    4.46946
H      4.11469   -3.81929   -4.21705
H      3.13571   -5.03501   -5.05292
H      4.80398   -5.40030   -4.60066
H      2.31808   -3.66224   -2.36986
H      1.34155   -4.87325   -3.18420
H      3.23692   -6.51489   -2.99386
H      4.20063   -5.31364   -2.16656
H     -2.74949   -1.43031    2.76409
H     -2.67431   -1.40618    4.51135
H     -0.43562   -1.01215    4.09952
H     -0.34431   -2.74875    4.10394
H     -2.85143   -3.77034    4.70271
H     -2.31456   -4.07105    3.06415
H      0.88422   -1.65199    2.20264
H     -0.61939   -0.88342    1.67476
H     -1.50891   -3.10152    1.20677
