27

C      0.65954    0.85635   -0.02456
C      0.21831   -0.23222   -0.69907
C      1.23643    2.06324   -0.63373
C      0.07424   -1.06588    1.57288
C     -0.46330   -1.28756    0.14928
C     -1.99462   -1.13905    0.05192
C      2.78908    6.53345    0.61041
C      2.18883    5.18455    1.02329
C      2.02327    4.25859   -0.17121
O      1.48636    2.21382   -1.81747
O      0.25662   -0.36623   -2.04868
O      1.45669    3.01783    0.30952
S      0.40206    0.74077    1.74768
H     -0.63586   -1.37992    2.34092
H      1.01748   -1.60070    1.71562
H     -0.17723   -2.29216   -0.19279
H     -2.30637   -0.17047    0.45344
H     -2.49294   -1.92979    0.62186
H     -2.33783   -1.20275   -0.98593
H      3.77723    6.40762    0.15346
H      2.15044    7.04947   -0.11549
H      2.90518    7.19088    1.47762
H      1.21167    5.33340    1.49643
H      2.82921    4.69587    1.76612
H      1.35528    4.68446   -0.92681
H      2.98122    4.04558   -0.65638
H     -0.06077   -1.25318   -2.28233
