27

C      0.62221    1.04053   -0.19582
C      0.50629   -0.17555   -0.80275
C      1.05615    2.20543   -0.94049
C      0.15271   -0.81228    1.50325
C     -0.07773   -1.27238    0.05008
C     -1.56644   -1.46670   -0.29738
C     -0.94040    5.48707   -0.74586
C      0.24617    5.16235   -1.65983
C      1.43465    4.56116   -0.91723
O      1.38109    2.15231   -2.13825
O      0.79141   -0.44720   -2.08218
O      1.06736    3.33900   -0.21991
S      0.11480    1.03948    1.51867
H     -0.61433   -1.18576    2.18459
H      1.13542   -1.13249    1.85988
H      0.45948   -2.20866   -0.13582
H     -2.13389   -0.55809   -0.07316
H     -1.98809   -2.29116    0.28657
H     -1.68711   -1.69950   -1.35888
H     -1.31300    4.58701   -0.24781
H     -0.65647    6.20483    0.03250
H     -1.76560    5.92234   -1.31842
H      0.60380    6.07539   -2.15318
H     -0.05732    4.47544   -2.45615
H      2.26069    4.34449   -1.59740
H      1.78002    5.22308   -0.11950
H      1.09543    0.40892   -2.48543
