19   

C        1.7384419423   -1.2550413790   -0.1122797130
C        0.7594317303   -0.5075775498    0.5303299400
C        2.7566132330   -1.8501374337    0.6347322521
C        0.8073010213   -0.3576061036    1.9153937810
C        2.8280617124   -1.7222434619    2.0404848157
C        1.8262642399   -0.9506732063    2.6864757229
C        3.9374114945   -2.3782579180    2.7466363214
C        1.8205881848   -0.7129792303    4.1780480151
N        4.0768571565   -2.6267518744    4.0910981897
N        5.0301618460   -2.8515689983    2.1031537344
N        5.2770298419   -3.2535562159    4.2090870394
N        5.8283601398   -3.3841371009    3.0607115101
H        1.7153431082   -1.3773121502   -1.1884326375
H       -0.0339060721   -0.0418627160   -0.0418556827
H        3.5107555495   -2.4302256713    0.1154791302
H        0.0396935838    0.2333955473    2.3998319327
H        1.6340956781   -1.6524087351    4.7071424698
H        2.7825630091   -0.3020116582    4.4992558985
H        1.0397015844   -0.0015162411    4.4605778850
19   

C        1.7129374360   -1.2940505331   -0.1207866851
C        0.7450747063   -0.5273953814    0.5192876356
C        2.7303749927   -1.8896769613    0.6275689555
C        0.8041278778   -0.3562383593    1.9025892031
C        2.8048605819   -1.7452875433    2.0284876693
C        1.8220583411   -0.9504426122    2.6730367226
C        3.9194818294   -2.3869559898    2.7407815494
C        1.8515888684   -0.6869225936    4.1595308088
N        3.9559085749   -2.8265543269    4.0413762517
N        5.1183903895   -2.6198858990    2.1598426355
N        5.2106010603   -3.3260490167    4.1994006332
N        5.8819064780   -3.2075950378    3.1139400546
H        1.6822553015   -1.4285953247   -1.1952684095
H       -0.0467380667   -0.0606990551   -0.0541978965
H        3.4837828927   -2.4827233970    0.1216210054
H        0.0492485595    0.2523801644    2.3852103098
H        1.5998733793   -1.6006483701    4.7063002263
H        2.8469646379   -0.3497437850    4.4649110082
H        1.1321413052    0.0891075546    4.4351947264
19   

C        1.7018344980   -1.3117162666   -0.1259327665
C        0.7477905055   -0.5265565200    0.5158737859
C        2.7149297112   -1.9180839152    0.6206142795
C        0.8167249929   -0.3454997423    1.8986290371
C        2.7904109276   -1.7678567995    2.0176848014
C        1.8298562457   -0.9513841609    2.6651502867
C        3.9059646115   -2.4037067755    2.7384499902
C        1.8880639158   -0.6855886189    4.1499699880
N        3.8595510132   -3.0319565613    3.9574609248
N        5.1751592333   -2.4030973753    2.2762030273
N        5.1448365862   -3.4126226963    4.1879985174
N        5.9038012656   -3.0508678144    3.2191041990
H        1.6642331101   -1.4500065426   -1.1997020229
H       -0.0398452161   -0.0514251689   -0.0564300338
H        3.4660189727   -2.5214530723    0.1234471798
H        0.0758343923    0.2788182669    2.3828577467
H        1.6063229992   -1.5875491158    4.7015674857
H        2.9012672550   -0.3930999263    4.4430190938
H        1.2053193623    0.1210846987    4.4309543227
19   

C        2.0351235965   -0.7401683340   -0.1290702088
C        0.8618364675   -0.3414556384    0.5086925292
C        3.0419896068   -1.3722511322    0.6053525274
C        0.7042672131   -0.5687560135    1.8782659694
C        2.8906584990   -1.6312339081    1.9777833104
C        1.7084956498   -1.2058518280    2.6301188222
C        4.0016554027   -2.2597225452    2.7199436545
C        1.5218274364   -1.3995209149    4.1151247327
N        3.9284516596   -3.3778794723    3.5095858146
N        5.2484913278   -1.7466455279    2.7605333720
N        5.1890850326   -3.5175139944    4.0017986917
N        5.9503453455   -2.5783840544    3.5703876880
H        2.1711255637   -0.5573963673   -1.1881221080
H        0.0778404822    0.1508058490   -0.0540454301
H        3.9642011411   -1.6737419060    0.1220344060
H       -0.2069292705   -0.2420389514    2.3641817339
H        1.4039637499   -2.4637367748    4.3403837354
H        2.3936059912   -1.0199538631    4.6574388819
H        0.6355658493   -0.8675133893    4.4718894711
19   

C        2.0221875527   -0.7555440928   -0.1439809548
C        0.8571549497   -0.3442241598    0.5031949000
C        3.0361780851   -1.3821494251    0.5861167909
C        0.7126172692   -0.5554261261    1.8775284870
C        2.8974648847   -1.6165616502    1.9627401206
C        1.7241320840   -1.1859711032    2.6243539574
C        4.0014419009   -2.2501989891    2.7188404210
C        1.5569966197   -1.3824692213    4.1109952156
N        3.9850476609   -3.5049568877    3.2674381240
N        5.1577401764   -1.6256035124    3.0155042546
N        5.1913642354   -3.6052152852    3.8890183984
N        5.8677261275   -2.5234304747    3.7438177082
H        2.1449954484   -0.5878197917   -1.2071170954
H        0.0681203913    0.1430899103   -0.0568004756
H        3.9509610007   -1.6973028754    0.0979202266
H       -0.1932803406   -0.2234066713    2.3696999302
H        1.5105357615   -2.4509611623    4.3426970408
H        2.4068700775   -0.9457200302    4.6450094757
H        0.6400933767   -0.9066702344    4.4696799610
19   

C        2.0190235673   -0.7821087059   -0.1503747334
C        0.8616004164   -0.3513086180    0.4987480056
C        3.0362864334   -1.3995794615    0.5832681692
C        0.7250747329   -0.5389364977    1.8776323875
C        2.9114550334   -1.5936233301    1.9668733952
C        1.7406401997   -1.1585090924    2.6278390218
C        4.0006464738   -2.2497473894    2.7296371082
C        1.5774295132   -1.3534898556    4.1148718861
N        4.1205632415   -3.5935134789    2.9593414301
N        5.0230584174   -1.5822189202    3.2959847654
N        5.2605922939   -3.6960030767    3.6954742352
N        5.7815366087   -2.5381362498    3.8890091360
H        2.1316802138   -0.6397121543   -1.2183143935
H        0.0699053745    0.1279790005   -0.0644092513
H        3.9412335174   -1.7389559932    0.0931157108
H       -0.1783066327   -0.1998976536    2.3696316157
H        1.6283280690   -2.4191859402    4.3592032734
H        2.3792071200   -0.8344591829    4.6494399126
H        0.6167329851   -0.9613985707    4.4599611303
19   

C        2.0163713264   -0.8108401713   -0.1449796260
C        0.8673359578   -0.3530580132    0.4994143565
C        3.0318690252   -1.4191449175    0.5983519238
C        0.7356728273   -0.5102953654    1.8821654230
C        2.9214957066   -1.5676318704    1.9894390053
C        1.7504629420   -1.1195608555    2.6421232130
C        3.9981609506   -2.2489430616    2.7439291312
C        1.5785550794   -1.2985964232    4.1302988801
N        4.3251694036   -3.5743982572    2.6467153614
N        4.8598830434   -1.6116876866    3.5592653039
N        5.3993442112   -3.7055194660    3.4719407057
N        5.7085473920   -2.5752187928    3.9973242396
H        2.1227910325   -0.6998198798   -1.2172763450
H        0.0763303560    0.1186889464   -0.0710280322
H        3.9260883318   -1.7881769268    0.1095597277
H       -0.1651281208   -0.1578918865    2.3694874562
H        1.6973150561   -2.3535357329    4.3968844656
H        2.3342939727   -0.7155598676    4.6655918984
H        0.5879850175   -0.9674691365    4.4542086939
19   

C        2.0175069899   -0.8413084062   -0.1367630400
C        0.8753797890   -0.3520774154    0.4944407416
C        3.0183261411   -1.4550978807    0.6210968628
C        0.7357360031   -0.4860024073    1.8781323212
C        2.9062723215   -1.5765858363    2.0161713816
C        1.7362815276   -1.0996010505    2.6540212287
C        3.9688229597   -2.2750414679    2.7657164490
C        1.5354310330   -1.2620492206    4.1409850606
N        4.4900017100   -3.5007435824    2.4457733548
N        4.6573535591   -1.7310448502    3.7899223344
N        5.4855353450   -3.6818648495    3.3555809357
N        5.5829152425   -2.6625651622    4.1300398962
H        2.1299119947   -0.7518101460   -1.2104690507
H        0.0948997422    0.1237924011   -0.0869727647
H        3.9051183547   -1.8501789139    0.1386842317
H       -0.1623680840   -0.1125175089    2.3546381088
H        1.7153039972   -2.3009544058    4.4348352365
H        2.2334899041   -0.6175773489    4.6837941346
H        0.5158021402   -0.9934341245    4.4308161431
19   

C        2.0025708364   -0.8660269550   -0.1323673926
C        0.8738740910   -0.3555365016    0.5031942623
C        3.0008120832   -1.4860358100    0.6228235255
C        0.7458313222   -0.4750244830    1.8884451390
C        2.9027742339   -1.5971760763    2.0219132325
C        1.7436361935   -1.0946941457    2.6641849726
C        3.9744814546   -2.2924191061    2.7533898635
C        1.5306939785   -1.2423376294    4.1517186975
N        4.6643416040   -3.3832874801    2.2900901476
N        4.5039126765   -1.8806023832    3.9255309946
N        5.5928172920   -3.6244050433    3.2548026498
N        5.5011104810   -2.7587271243    4.1976010625
H        2.1076824437   -0.7875000468   -1.2076823029
H        0.0947197080    0.1255822820   -0.0756794289
H        3.8774689348   -1.8923320335    0.1310531589
H       -0.1438375845   -0.0850983457    2.3676372528
H        1.7380363792   -2.2704813664    4.4645307892
H        2.1985291897   -0.5655265079    4.6931171491
H        0.4990738185   -1.0043585306    4.4254466013
19   

C        1.9927542309   -0.8803940262   -0.1334587883
C        0.8745742281   -0.3541663993    0.5043404836
C        2.9882869527   -1.5052167103    0.6201946025
C        0.7558318019   -0.4622172027    1.8902885142
C        2.8998683855   -1.6129742853    2.0227449082
C        1.7500598044   -1.0878931681    2.6673893615
C        3.9847233421   -2.2993167802    2.7395063757
C        1.5247641568   -1.2126900417    4.1559626425
N        4.8246099692   -3.2320817594    2.1830944882
N        4.3631397251   -2.0580804643    4.0145574999
N        5.6888220884   -3.5494277772    3.1842028915
N        5.4233101995   -2.8728043844    4.2407263173
H        2.0933521032   -0.8090223015   -1.2097183680
H        0.0969190792    0.1315023971   -0.0727597744
H        3.8569669044   -1.9160040602    0.1182235029
H       -0.1268624568   -0.0574011815    2.3700609639
H        1.6891398678   -2.2450851480    4.4797199418
H        2.2115205732   -0.5532809363    4.6951988915
H        0.5012942977   -0.9350587668    4.4227857101
19   

C        1.9751746632   -0.9092803430   -0.1273219475
C        0.8636843923   -0.3743236711    0.5117936284
C        2.9736800445   -1.5284506073    0.6260393668
C        0.7566937374   -0.4661702339    1.8989347596
C        2.8958956685   -1.6285105727    2.0320643820
C        1.7533187832   -1.0870386955    2.6784127058
C        3.9953571539   -2.2994207211    2.7397823891
C        1.5301765877   -1.1696102566    4.1709820925
N        4.9751440969   -3.0481038297    2.1329050188
N        4.2340750000   -2.2555283306    4.0704810047
N        5.7819486731   -3.4490449340    3.1512460761
N        5.3548317651   -2.9920370828    4.2697954519
H        2.0695462517   -0.8480694652   -1.2047828944
H        0.0833289746    0.1079011293   -0.0645637564
H        3.8359975194   -1.9406250527    0.1146513780
H       -0.1205828725   -0.0495328635    2.3785227179
H        1.6103581878   -2.2070786856    4.5096076921
H        2.2692229129   -0.5571746634    4.6963502573
H        0.5349258749   -0.8061575980    4.4413100707
19   

C        1.9490654404   -0.9392298811   -0.1206441998
C        0.8401433775   -0.4037151130    0.5211323225
C        2.9563331273   -1.5452181006    0.6313393246
C        0.7468496607   -0.4782176260    1.9099013650
C        2.8896277786   -1.6356760368    2.0395685775
C        1.7523652063   -1.0857150915    2.6891941157
C        4.0006950205   -2.2926900077    2.7421174567
C        1.5537867871   -1.1137792905    4.1875480649
N        5.1070252692   -2.8291813055    2.1268050559
N        4.1128394592   -2.4722962588    4.0784265762
N        5.8625817818   -3.3241667820    3.1428340699
N        5.2891787920   -3.1184640323    4.2699204978
H        2.0350260811   -0.8885765944   -1.1993624296
H        0.0529187696    0.0687630926   -0.0539591289
H        3.8146632036   -1.9578497275    0.1138339551
H       -0.1260297849   -0.0545750882    2.3913616466
H        1.5254243606   -2.1473226023    4.5457396034
H        2.3655821087   -0.5758852553    4.6865221267
H        0.6119173554   -0.6355365001    4.4700802392
19   

C        1.9397290836   -0.9759630260   -0.1335139286
C        0.8298278238   -0.4379794721    0.5058232727
C        2.9529088696   -1.5676193565    0.6223610886
C        0.7431597573   -0.4916919353    1.8963802800
C        2.8879203361   -1.6436113369    2.0305377487
C        1.7547527206   -1.0844898192    2.6784273693
C        4.0035603975   -2.2841938382    2.7410324163
C        1.5877687294   -1.0618279672    4.1804203782
N        5.2141962816   -2.6012214770    2.1730064204
N        4.0017280163   -2.6898776219    4.0314136977
N        5.9202590583   -3.1903402889    3.1745676548
N        5.2211477547   -3.2418017999    4.2474333585
H        2.0217085710   -0.9380216033   -1.2130575184
H        0.0384616144    0.0236014724   -0.0724206790
H        3.8127860143   -1.9844142702    0.1106087257
H       -0.1263948022   -0.0605668038    2.3772249677
H        1.4549221247   -2.0795936546    4.5596094792
H        2.4648991900   -0.6090686928    4.6527414774
H        0.7120151676   -0.4748979271    4.4707098726
19   

C        1.9090915569   -1.0029487752   -0.1125711474
C        0.8082647872   -0.4509583623    0.5335650975
C        2.9278874705   -1.5921168616    0.6387086600
C        0.7366044006   -0.4855531861    1.9265008492
C        2.8717613131   -1.6541421603    2.0457227526
C        1.7538471665   -1.0763453883    2.7011190506
C        3.9940132613   -2.2776808864    2.7619233294
C        1.6297405154   -1.0282859063    4.2059243039
N        5.2713319772   -2.3887778386    2.2706952543
N        3.9187161950   -2.8978611801    3.9607069138
N        5.9471557733   -3.0694216706    3.2349154359
N        5.1677585762   -3.3633119621    4.2099156535
H        1.9798370335   -0.9761961603   -1.1932317081
H        0.0136623719    0.0090272929   -0.0414897864
H        3.7852115695   -2.0187879336    0.1305042565
H       -0.1220248778   -0.0408617312    2.4145679351
H        1.4306185595   -2.0304230018    4.5974562583
H        2.5533201803   -0.6454589176    4.6510358586
H        0.8108685125   -0.3711961807    4.5116078648
19   

C        1.9022676105   -1.0184997965   -0.1187446490
C        0.8082541954   -0.4504653781    0.5285269223
C        2.9191408908   -1.6121579874    0.6327588281
C        0.7410877932   -0.4719041020    1.9230178934
C        2.8608232298   -1.6648955661    2.0374840594
C        1.7560233698   -1.0682433815    2.6948031379
C        3.9825596008   -2.2750299477    2.7698264874
C        1.6579628946   -1.0183133212    4.2007196761
N        5.3014610125   -2.1880987211    2.4044585253
N        3.8556228128   -3.0999417212    3.8315526837
N        5.9514449552   -2.9592033081    3.3175824488
N        5.1188726628   -3.4851778107    4.1402928675
H        1.9693742108   -0.9988421756   -1.1997749341
H        0.0161698453    0.0129695789   -0.0472186610
H        3.7768489667   -2.0482495701    0.1331558916
H       -0.1094295700   -0.0143702277    2.4133869706
H        1.4310307173   -2.0142339533    4.5929388660
H        2.6036226345   -0.6745665716    4.6314017906
H        0.8688370574   -0.3316781964    4.5194904427
19   

C        1.8963104280   -1.0356748376   -0.1187592643
C        0.8151779154   -0.4424169375    0.5304090578
C        2.9077494026   -1.6406420125    0.6320697860
C        0.7545543371   -0.4496902800    1.9262252864
C        2.8512657270   -1.6791376454    2.0352382057
C        1.7644236525   -1.0571433436    2.6948285437
C        3.9675159454   -2.2887608050    2.7842942818
C        1.6866159181   -1.0128058680    4.2014027216
N        5.2953449439   -2.0127009497    2.5919294787
N        3.8267416922   -3.2988994247    3.6668802680
N        5.9342250121   -2.8689925720    3.4346872086
N        5.0888838867   -3.6106657688    4.0540052742
H        1.9575471867   -1.0256276316   -1.2002574029
H        0.0280649276    0.0294996880   -0.0452563844
H        3.7592571284   -2.0941920785    0.1376632820
H       -0.0849053144    0.0256796180    2.4186397871
H        1.4991720511   -2.0166341067    4.5944254884
H        2.6291040136   -0.6429673955    4.6172955208
H        0.8807201166   -0.3523979088    4.5333579839
19   

C        1.8704605141   -1.0546426230   -0.1293045927
C        0.8092872049   -0.4414294093    0.5362563627
C        2.8870048619   -1.6701148608    0.6066597205
C        0.7716086807   -0.4409003753    1.9336252178
C        2.8533038840   -1.6931356259    2.0094025463
C        1.7874170653   -1.0575900166    2.6861989474
C        3.9635459484   -2.3212377786    2.7613959464
C        1.7382439509   -1.0266825198    4.1938129519
N        5.2507584195   -1.8596218941    2.8180610414
N        3.8569347220   -3.4949659592    3.4128803299
N        5.8984915772   -2.7939876874    3.5660209201
N        5.0965192543   -3.7367921481    3.9083289260
H        1.9111251151   -1.0527086055   -1.2118078803
H        0.0186041522    0.0379108909   -0.0282726530
H        3.7225635975   -2.1421928948    0.1029588351
H       -0.0537101467    0.0458543282    2.4386320121
H        1.6372744918   -2.0439777879    4.5843598788
H        2.6605355575   -0.5900797583    4.5898236511
H        0.8918994817   -0.4312883595    4.5473645366
19   

C        1.8482178845   -1.0720759153   -0.1390923823
C        0.8045628838   -0.4377976104    0.5354729302
C        2.8740286436   -1.6827018663    0.5883561823
C        0.7898098348   -0.4160937636    1.9334916533
C        2.8707783298   -1.6678791825    1.9909939390
C        1.8153108104   -1.0264682970    2.6776962954
C        3.9666648118   -2.3211818288    2.7465600194
C        1.7844162715   -0.9938501186    4.1856395735
N        5.1318352613   -1.7238200422    3.1445448026
N        3.9413501959   -3.6094885617    3.1355332295
N        5.7986987729   -2.7156630655    3.7953890674
N        5.1141467342   -3.8023299922    3.7898292415
H        1.8659194298   -1.0930275083   -1.2220100254
H        0.0067260034    0.0370231084   -0.0227801851
H        3.6909462093   -2.1796558945    0.0784171273
H       -0.0260809248    0.0795017963    2.4451712125
H        1.7628744230   -2.0144282088    4.5805587442
H        2.6792123780   -0.4914280198    4.5663058935
H        0.9023005226   -0.4598444755    4.5496036678
19   

C        1.8273475650   -1.0902458123   -0.1360750836
C        0.7957998464   -0.4386857942    0.5397304665
C        2.8592004277   -1.6925847250    0.5894060661
C        0.7965117154   -0.3966444698    1.9370608119
C        2.8822410815   -1.6431000673    1.9916497692
C        1.8291141332   -0.9971011061    2.6798095479
C        3.9681802901   -2.3195676378    2.7367815640
C        1.7974201861   -0.9600217634    4.1878764770
N        4.9622058225   -1.7022724437    3.4484600011
N        4.0708075598   -3.6576991052    2.8548130915
N        5.6715667485   -2.7342688785    3.9808246864
N        5.1592158474   -3.8609274013    3.6388321547
H        1.8292914961   -1.1342041670   -1.2184500294
H       -0.0074481636    0.0290429952   -0.0167474617
H        3.6613444867   -2.2111800211    0.0774407050
H       -0.0149401457    0.1049330477    2.4499798369
H        1.8703196455   -1.9756077962    4.5897198478
H        2.6416415645   -0.3740589235    4.5639838271
H        0.8695629657   -0.5090889707    4.5504949931
19   

C        1.8159270322   -1.1052479373   -0.1279673262
C        0.7917548729   -0.4378132195    0.5412708757
C        2.8469706424   -1.7016493151    0.6027870921
C        0.7987715694   -0.3770215582    1.9371161888
C        2.8835714748   -1.6292174262    2.0052937515
C        1.8315385312   -0.9706701225    2.6858215172
C        3.9687841710   -2.3149232206    2.7343806191
C        1.7861101094   -0.9205072395    4.1934921391
N        4.8011306815   -1.7586530269    3.6708811426
N        4.2317044670   -3.6320631096    2.6076443522
N        5.5817075553   -2.7962893931    4.0770244499
N        5.2546200927   -3.8758808487    3.4646251502
H        1.8125783879   -1.1677807471   -1.2094331934
H       -0.0118145304    0.0252291784   -0.0186545480
H        3.6408062939   -2.2352565789    0.0928353371
H       -0.0100887662    0.1333517279    2.4454581468
H        1.9299207474   -1.9228633823    4.6091803121
H        2.5799935210   -0.2675578449    4.5684928126
H        0.8239603277   -0.5372148034    4.5444003158
19   

C        1.8115601077   -1.1220721470   -0.1177542773
C        0.7970170707   -0.4336635552    0.5421012045
C        2.8336651287   -1.7232022760    0.6206990252
C        0.8056141332   -0.3571096311    1.9362439465
C        2.8746337864   -1.6393703907    2.0247449221
C        1.8294205531   -0.9554532675    2.6944537541
C        3.9599924878   -2.3277345958    2.7434725150
C        1.7671404523   -0.8845850699    4.2010434872
N        4.6510348381   -1.8762608131    3.8395696728
N        4.3910727088   -3.5643991358    2.4127319845
N        5.5133503465   -2.8866434985    4.1321142618
N        5.3644302649   -3.8599793182    3.3098409581
H        1.8087925734   -1.1969837292   -1.1984480533
H       -0.0001396951    0.0335445088   -0.0235028193
H        3.6197032825   -2.2692882362    0.1114845384
H        0.0028136017    0.1701044176    2.4369686969
H        1.9144262983   -1.8792315293    4.6334712010
H        2.5484326547   -0.2163691306    4.5755287265
H        0.7970363206   -0.5071049855    4.5360393176
19   

C        1.8008122165   -1.1430730486   -0.1135878048
C        0.7982317746   -0.4343595802    0.5396753352
C        2.8149769518   -1.7510607662    0.6292617919
C        0.8127669024   -0.3431517012    1.9317024988
C        2.8618877488   -1.6617753798    2.0359765664
C        1.8281938520   -0.9488275322    2.6964931493
C        3.9514987207   -2.3480409588    2.7456013570
C        1.7580302553   -0.8482805857    4.2014574210
N        4.5098278027   -2.0275471395    3.9587107026
N        4.5575342931   -3.4537549456    2.2563246309
N        5.4619607729   -2.9772192559    4.1594642929
N        5.4904297543   -3.8003373596    3.1773273537
H        1.7967794614   -1.2272938686   -1.1936086421
H        0.0070288376    0.0389942006   -0.0291776826
H        3.5911288201   -2.3052202418    0.1136990341
H        0.0192397854    0.2032782474    2.4265878618
H        1.8565561620   -1.8405710238    4.6524323978
H        2.5627101850   -0.2056495572    4.5712147453
H        0.8027893376   -0.4238258556    4.5226549261
19   

C        1.7851216169   -1.1874481825   -0.1204028350
C        0.7952335652   -0.4554597030    0.5233214819
C        2.7929168907   -1.7972297517    0.6288528541
C        0.8181686808   -0.3410827255    1.9123846288
C        2.8473026993   -1.6936119805    2.0374209285
C        1.8268858853   -0.9486340175    2.6856255524
C        3.9413727971   -2.3720542649    2.7462663155
C        1.7602336744   -0.7999968356    4.1871971193
N        4.3618243469   -2.2061839457    4.0441019255
N        4.7209919248   -3.3071917447    2.1543707971
N        5.4021291998   -3.0688869379    4.1883441892
N        5.6104839967   -3.7051975319    3.0967461065
H        1.7779146369   -1.2872294021   -1.1990965202
H        0.0091452606    0.0204406183   -0.0504863450
H        3.5567953735   -2.3632136661    0.1082722313
H        0.0355280889    0.2281292641    2.3988588789
H        1.7762108421   -1.7839585122    4.6657651167
H        2.6102793714   -0.2106966307    4.5441244093
H        0.8410156777   -0.2923606764    4.4923727993
19   

C        1.7690019655   -1.2234259161   -0.1251564278
C        0.7811884569   -0.4865484507    0.5147002905
C        2.7815466850   -1.8227623585    0.6257991703
C        0.8131257272   -0.3543156615    1.9014723616
C        2.8426805552   -1.7077621576    2.0346118930
C        1.8264778898   -0.9514359991    2.6772974018
C        3.9456562309   -2.3727523235    2.7424947441
C        1.7803580108   -0.7543787476    4.1742560520
N        4.2170642824   -2.4062428933    4.0896770998
N        4.8977458642   -3.0862967864    2.0958680308
N        5.3456891412   -3.1542511145    4.2048852096
N        5.7398683655   -3.5478279909    3.0524418067
H        1.7571036488   -1.3348707845   -1.2026727895
H       -0.0083634442   -0.0180441720   -0.0604439669
H        3.5406506525   -2.3925026957    0.1026114596
H        0.0347202400    0.2239463890    2.3840470917
H        1.6934641471   -1.7212423352    4.6791663184
H        2.6876076864   -0.2468292025    4.5157220097
H        0.9217192291   -0.1431235528    4.4655775702
