26   

C        0.3824006191   -0.4971156874   -0.3394827438
C        7.4793165921   -0.2456040598    4.7896065967
C        1.6115640944    0.1248112618   -0.1018891398
C       -0.1695689984   -1.3372484401    0.6314184746
C        6.9699516116   -0.6244683374    3.5441800986
C        6.6033366799    0.1121887906    5.8180964111
C        2.2874902816   -0.0967666082    1.1041251251
C        0.5060982396   -1.5503347113    1.8386225679
C        5.5865736904   -0.6419317143    3.3287580944
C        5.2208249143    0.0864412751    5.6006241045
C        1.7419217659   -0.9349446795    2.0873292042
C        4.6975707677   -0.2883288725    4.3541982531
C        2.4376097912   -1.1515483669    3.3572829463
C        3.2500796820   -0.3257621338    4.1367681764
H       -0.1423095322   -0.3269022886   -1.2728272156
H        8.5502075517   -0.2312678804    4.9581764094
H        2.0403023344    0.7817675851   -0.8499860222
H       -1.1220813630   -1.8224057985    0.4509431349
H        7.6458161341   -0.9083059510    2.7456170200
H        6.9940437328    0.4076301763    6.7852004014
H        3.2368677715    0.3942072124    1.2843317906
H        0.0677223177   -2.1997810328    2.5873533730
H        5.1985006698   -0.9433670595    2.3626413460
H        4.5494059740    0.3610129186    6.4058299761
H        2.3201178164   -2.1490379982    3.7636399578
H        2.7018164317    0.4468097249    4.6625592984
26   

C        0.6151843720   -0.5028975607   -0.3393600623
C        7.3974643195   -0.1893846473    4.5787658117
C        1.7883659814    0.1569558509    0.0368195523
C       -0.0003811399   -1.3857271851    0.5518080490
C        6.7895058105   -0.6583468344    3.4109738480
C        6.6072122471    0.2185875122    5.6565173205
C        2.3447510983   -0.0684369092    1.3016284269
C        0.5572971952   -1.6059995867    1.8166130648
C        5.3935048108   -0.7165896866    3.3220960125
C        5.2118902624    0.1558894217    5.5648854161
C        1.7370586981   -0.9534901319    2.2057626523
C        4.5882051539   -0.3088178810    4.3969351591
C        2.3031591079   -1.1803296901    3.5392687423
C        3.1259291432   -0.3847065777    4.3186123963
H        0.1823549485   -0.3282622176   -1.3179178409
H        8.4784045246   -0.1450770184    4.6496041381
H        2.2659781692    0.8472753743   -0.6490691794
H       -0.9114355036   -1.8984565314    0.2648989058
H        7.3987670432   -0.9815417280    2.5746468406
H        7.0745077086    0.5814489855    6.5649202096
H        3.2484405624    0.4577132418    1.5863283040
H        0.0684568280   -2.2891183518    2.5013530153
H        4.9337383407   -1.0928113786    2.4156655068
H        4.6091828351    0.4703064390    6.4089065500
H        2.0773741279   -2.1461513644    3.9753182874
H        2.5956248891    0.3257070134    4.9415246380
26   

C        0.8352691151   -0.4912126952   -0.3309169144
C        7.3152929436   -0.1541495220    4.3774177962
C        1.9167235956    0.2341171153    0.1760173342
C        0.2013383296   -1.4427539695    0.4719227564
C        6.6348715489   -0.7444330213    3.3091388535
C        6.5966683559    0.3407263844    5.4685319376
C        2.3624394487    0.0069405437    1.4835369255
C        0.6502593859   -1.6677928937    1.7784338584
C        5.2382993861   -0.8386535166    3.3332995383
C        5.2003607425    0.2455479307    5.4888347187
C        1.7372670033   -0.9493023998    2.3005710355
C        4.5026497956   -0.3418679163    4.4217904282
C        2.1831580841   -1.1832362847    3.6795195389
C        3.0394918692   -0.4517754391    4.4675231481
H        0.4872432357   -0.3140806707   -1.3423031934
H        8.3970123206   -0.0832876004    4.3612646614
H        2.4089499801    0.9767221444   -0.4415195817
H       -0.6403324795   -2.0052831729    0.0841363825
H        7.1883644396   -1.1339654113    2.4623734014
H        7.1205158511    0.7962206071    6.3011996568
H        3.1952035536    0.5853529414    1.8666430356
H        0.1462740426   -2.4052992993    2.3920132051
H        4.7253190066   -1.3093624445    2.5025686973
H        4.6557026014    0.6290068427    6.3436470594
H        1.8269463311   -2.0992594003    4.1355960093
H        2.5473676195    0.1774469487    5.1995640429
26   

C        1.0321034491   -0.4708842947   -0.3079163718
C        7.2300406649   -0.1370023654    4.1980155062
C        2.0024153765    0.3229972402    0.3090308992
C        0.4098715085   -1.4918022755    0.4146639972
C        6.5032441314   -0.8486912996    3.2400779165
C        6.5652828351    0.4491743563    5.2778595206
C        2.3471053816    0.0967071332    1.6468391693
C        0.7602449463   -1.7182105765    1.7507185852
C        5.1146051657   -0.9751116212    3.3643685386
C        5.1762276707    0.3246526563    5.3965267439
C        1.7331473021   -0.9291370042    2.3847261861
C        4.4319337776   -0.3872667625    4.4424104714
C        2.0722477920   -1.1659128237    3.7954234415
C        2.9765767456   -0.5276293742    4.5951040238
H        0.7612464165   -0.2937344945   -1.3426303960
H        8.3060265492   -0.0421298864    4.1051090353
H        2.4871612437    1.1174583067   -0.2467746264
H       -0.3466645748   -2.1074254400   -0.0584842613
H        7.0144449880   -1.3067226295    2.4010622884
H        7.1255170291    0.9985395656    6.0258858368
H        3.0960415676    0.7262203543    2.1136209632
H        0.2661628400   -2.5111406143    2.2997637005
H        4.5658736933   -1.5370430985    2.6172365426
H        4.6747812652    0.7812981328    6.2417091866
H        1.5630256271   -1.9982662793    4.2665981963
H        2.5426929640   -0.0139315621    5.4448008489
26   

C        1.2089923489   -0.4508903098   -0.2812678230
C        7.1489500708   -0.1242089929    4.0375195462
C        2.0577079014    0.4091560655    0.4205927647
C        0.6204373001   -1.5335594197    0.3769708409
C        6.4024589161   -0.9508064874    3.1936490649
C        6.5169398206    0.5464554304    5.0875821474
C        2.3122310553    0.1885753314    1.7793573602
C        0.8837770592   -1.7556793869    1.7335980806
C        5.0275887325   -1.1094529061    3.4039877279
C        5.1406031443    0.3918015864    5.2897820337
C        1.7308564102   -0.8981437000    2.4529201201
C        4.3782722717   -0.4382306034    4.4529855975
C        1.9778081076   -1.1317102303    3.8850696819
C        2.9363932139   -0.6092100946    4.6942701585
H        1.0068464062   -0.2778839706   -1.3322464382
H        8.2147558433   -0.0048550240    3.8788997833
H        2.5186549252    1.2495028885   -0.0857173049
H       -0.0423429944   -2.2006849952   -0.1623093514
H        6.8873843283   -1.4718623726    2.3761218680
H        7.0928416967    1.1850944915    5.7476089802
H        2.9695486040    0.8657565315    2.3127897985
H        0.4187508922   -2.5977892069    2.2324713728
H        4.4610022953   -1.7567066848    2.7442557575
H        4.6634731330    0.9159061748    6.1095005528
H        1.3072341274   -1.8336753024    4.3667368676
H        2.5784793517   -0.2546632393    5.6537605315
26   

C        1.3497383012   -0.4377896711   -0.2493227926
C        7.0726987549   -0.1157572265    3.9147901387
C        2.0997375752    0.4701461262    0.5031878506
C        0.7873472311   -1.5557990232    0.3721520993
C        6.3246034184   -1.0229874918    3.1595387233
C        6.4576970045    0.6043225402    4.9422721201
C        2.2801742041    0.2624095102    1.8757448072
C        0.9790896829   -1.7654172503    1.7427540012
C        4.9658295011   -1.2134360575    3.4371868946
C        5.0963362490    0.4187008401    5.2096664261
C        1.7244372075   -0.8588764594    2.5116147502
C        4.3346705475   -0.4932925287    4.4635820812
C        1.8974717575   -1.0806789140    3.9581562965
C        2.9080072388   -0.6951200967    4.7726542423
H        1.2043768994   -0.2749444656   -1.3112412091
H        8.1264340675    0.0283589480    3.7045710021
H        2.5421879079    1.3366889606    0.0253973313
H        0.2007997612   -2.2601049923   -0.2066529846
H        6.7954309611   -1.5808638041    2.3582657224
H        7.0351810404    1.3055189527    5.5338257111
H        2.8630403435    0.9729401249    2.4507725303
H        0.5373737237   -2.6350892741    2.2148292953
H        4.3944379413   -1.9200361208    2.8460250047
H        4.6297686680    0.9813978100    6.0096567666
H        1.0868657296   -1.6102309675    4.4452408623
H        2.6315367024   -0.5328564073    5.8080253632
26   

C        1.4432899385   -0.4377900331   -0.2210852183
C        7.0139749609   -0.1041397748    3.8372457837
C        2.1479919903    0.4927684176    0.5477137436
C        0.8748758323   -1.5569303879    0.3932522250
C        6.2713834556   -1.0472061571    3.1211680228
C        6.4079211481    0.6179985236    4.8688404422
C        2.2768406477    0.3062865584    1.9291017724
C        1.0159339920   -1.7451334329    1.7731147989
C        4.9273988016   -1.2711819314    3.4423284402
C        5.0606611262    0.3988001993    5.1789719245
C        1.7150086333   -0.8157118196    2.5569122643
C        4.3061037898   -0.5490437492    4.4725014654
C        1.8378587037   -1.0165489958    4.0133602846
C        2.8927851185   -0.7840488366    4.8243794472
H        1.3380464994   -0.2918245736   -1.2901587358
H        8.0564021788    0.0664453290    3.5932264605
H        2.5958896467    1.3596456327    0.0756767208
H        0.3234479007   -2.2787602447   -0.1983212659
H        6.7346794515   -1.6060794693    2.3162306001
H        6.9812803109    1.3469853476    5.4300057320
H        2.8262516420    1.0314150782    2.5187109064
H        0.5714865929   -2.6154324610    2.2414962230
H        4.3573387399   -2.0031333187    2.8814556474
H        4.5987398782    0.9627089568    5.9808265807
H        0.9303210183   -1.3418470082    4.5087953526
H        2.6867773951   -0.8350632163    5.8873277935
26   

C        1.5763817221   -0.9291607079   -0.2458413600
C        6.8825306175    0.3869895769    3.8608592570
C        2.6435279731   -1.5841719666    0.3755780972
C        0.5957330808   -0.3077224791    0.5322395319
C        5.7999016742    1.0374915995    3.2618867055
C        6.6527210824   -0.6434841080    4.7766036763
C        2.7243708467   -1.6220010017    1.7726260880
C        0.6867658460   -0.3388598697    1.9286646458
C        4.4907436655    0.6609593100    3.5844397184
C        5.3420318293   -1.0237547599    5.0876635252
C        1.7490723865   -0.9973971806    2.5639639447
C        4.2476890361   -0.3753097701    4.4980020711
C        1.8227902458   -1.0366415978    4.0384166303
C        2.8700834146   -0.7758785342    4.8486826206
H        1.5097435368   -0.9031300223   -1.3275880578
H        7.8969218579    0.6806569234    3.6157760237
H        3.4100733159   -2.0627750542   -0.2229567083
H       -0.2360121476    0.1975967174    0.0548203688
H        5.9722969952    1.8333808308    2.5465280062
H        7.4890906261   -1.1478147129    5.2469372690
H        3.5559044212   -2.1288874751    2.2491147682
H       -0.0772854336    0.1450470699    2.5256944397
H        3.6549310877    1.1669146469    3.1144907886
H        5.1712889263   -1.8235551376    5.7986845882
H        0.9336765907   -1.4160334815    4.5286905375
H        2.6511562500   -0.7703623203    5.9102236558
26   

C        1.5495587305   -0.9746419135   -0.2492171344
C        6.8844771384    0.4248267877    3.8980960837
C        2.6058483759   -1.6319553329    0.3877960218
C        0.5857858094   -0.3092476770    0.5132585348
C        5.7905709021    1.0694312607    3.3137607879
C        6.6732118960   -0.6375120484    4.7811461856
C        2.6924381568   -1.6286011978    1.7849701704
C        0.6826794011   -0.2989819875    1.9096233361
C        4.4885420712    0.6554849129    3.6186901081
C        5.3698369123   -1.0553464220    5.0743393722
C        1.7339073855   -0.9599924314    2.5614257367
C        4.2634130491   -0.4129854050    4.4998263612
C        1.8115432713   -0.9581208593    4.0346693904
C        2.8948944021   -0.8509440591    4.8343568308
H        1.4782204582   -0.9810335103   -1.3309602028
H        7.8932224021    0.7478897206    3.6670914924
H        3.3594115951   -2.1447780400   -0.1987718017
H       -0.2377629740    0.1978553862    0.0236840689
H        5.9486462915    1.8902189437    2.6236692563
H        7.5184581268   -1.1372828260    5.2403388458
H        3.5154619569   -2.1392240076    2.2720007744
H       -0.0693229679    0.2189100494    2.4932475504
H        3.6450302501    1.1591938806    3.1603597448
H        5.2150161868   -1.8795757536    5.7606427887
H        0.8692885280   -1.1259789177    4.5434721239
H        2.7239376078   -1.0590887716    5.8842854920
26   

C        1.4677491450   -1.0134196071   -0.2834906301
C        6.9361253889    0.4533332802    3.9750738568
C        2.5554443339   -1.6275746854    0.3432872816
C        0.5094865624   -0.3477798312    0.4853529250
C        5.8500439429    1.0680230704    3.3460257258
C        6.7171851023   -0.6099347356    4.8548414270
C        2.6793065742   -1.5809658457    1.7368818962
C        0.6427395535   -0.2944372205    1.8777093615
C        4.5477451802    0.6233593126    3.6027598640
C        5.4142095622   -1.0583893514    5.1006103152
C        1.7261975095   -0.9118627249    2.5206768110
C        4.3141467351   -0.4465830274    4.4808867565
C        1.8400553175   -0.8673681310    3.9892302367
C        2.9466124208   -0.9145482240    4.7680329607
H        1.3675917612   -1.0537934602   -1.3622201746
H        7.9447390046    0.8005674884    3.7815645545
H        3.3042528467   -2.1413484810   -0.2485447533
H       -0.3383994764    0.1258678812    0.0038482309
H        6.0143673963    1.8902282736    2.6590619574
H        7.5562399064   -1.0865577320    5.3487210211
H        3.5263507816   -2.0611100939    2.2135595016
H       -0.1069055779    0.2233462278    2.4644204843
H        3.7119539716    1.1072964050    3.1103141083
H        5.2557211285   -1.8829162425    5.7856905393
H        0.8993668608   -0.8112298685    4.5246857652
H        2.8001759357   -1.3378852240    5.7549985500
26   

C        1.3375817531   -1.0514754820   -0.3281648458
C        7.0139918323    0.4739049588    4.0929572098
C        2.4943397683   -1.5719587004    0.2580298339
C        0.3714956837   -0.4363579048    0.4719277461
C        5.9612852148    1.0293393881    3.3608929242
C        6.7582751494   -0.5538139228    5.0041335030
C        2.6807193244   -1.4813100087    1.6424915469
C        0.5651423823   -0.3402721377    1.8548130699
C        4.6551492877    0.5603640983    3.5446352035
C        5.4522293060   -1.0257404771    5.1791536325
C        1.7200029053   -0.8619255243    2.4585782658
C        4.3839256918   -0.4750470931    4.4540162597
C        1.8966032722   -0.7745877339    3.9171624202
C        3.0129778578   -0.9659107416    4.6681191572
H        1.1896276785   -1.1259705103   -1.3995701377
H        8.0251275483    0.8400400384    3.9554849351
H        3.2480690228   -2.0484261920   -0.3583104927
H       -0.5296455308   -0.0353398972    0.0221630768
H        6.1543687709    1.8255451876    2.6511188187
H        7.5710997497   -0.9845126654    5.5776960469
H        3.5808617090   -1.8928033067    2.0847733661
H       -0.1933576279    0.1371460776    2.4639310109
H        3.8471883241    1.0028485673    2.9731429507
H        5.2676008494   -1.8216487963    5.8909948865
H        1.0105238254   -0.5040115407    4.4793724566
H        2.8702890246   -1.5841166727    5.5466916179
26   

C        1.1699567357   -1.1059382694   -0.3561182559
C        7.0866169157    0.4961496180    4.2546634984
C        2.4050406164   -1.5038640537    0.1621477966
C        0.2016746426   -0.5684810527    0.4954309857
C        6.0951906623    0.9764668423    3.3951587283
C        6.7678565890   -0.4761562001    5.2057588392
C        2.6690240123   -1.3661544280    1.5300306092
C        0.4707007426   -0.4279985531    1.8617972872
C        4.7873473034    0.4861418904    3.4893449566
C        5.4602402960   -0.9674764496    5.2940805712
C        1.7067090900   -0.8232035636    2.3977480255
C        4.4529880106   -0.4949113128    4.4377719916
C        1.9637533199   -0.6898890550    3.8390264198
C        3.0798227715   -1.0052612112    4.5598578193
H        0.9628139901   -1.2161427548   -1.4145731653
H        8.0988196629    0.8783036844    4.1855225824
H        3.1592512652   -1.9228999010   -0.4940854355
H       -0.7596169068   -0.2624583557    0.0985969257
H        6.3369665025    1.7320105586    2.6564003474
H        7.5327330912   -0.8485939143    5.8776678542
H        3.6290396050   -1.6868043430    1.9181415127
H       -0.2915723000   -0.0132050478    2.5107894629
H        4.0276432945    0.8745178692    2.8206941056
H        5.2269367270   -1.7186422290    6.0394848731
H        1.1685197079   -0.2338445091    4.4167392855
H        2.9319665138   -1.7798194260    5.3030426042
26   

C        0.9777057698   -1.1734852493   -0.3751622778
C        7.1562250717    0.5223907583    4.4453111530
C        2.2810085171   -1.4449922244    0.0494883004
C        0.0303589284   -0.7154768240    0.5438659055
C        6.2539987040    0.9293516427    3.4588955712
C        6.7512240311   -0.3924838581    5.4204165192
C        2.6348363755   -1.2580485290    1.3910371794
C        0.3879558013   -0.5289528668    1.8841902794
C        4.9495503650    0.4212167174    3.4487994867
C        5.4464811242   -0.8990248113    5.4066810203
C        1.6939252956   -0.7944049628    2.3251050306
C        4.5298448684   -0.5020856776    4.4204565529
C        2.0476176613   -0.6125260341    3.7387183635
C        3.1587492670   -1.0277267593    4.4319140340
H        0.7016470021   -1.3207236308   -1.4131956028
H        8.1657813958    0.9174602179    4.4559968618
H        3.0183747616   -1.8048921357   -0.6589353799
H       -0.9828989937   -0.5069772881    0.2197294872
H        6.5621967487    1.6424754628    2.7028741289
H        7.4466204689   -0.7083356729    6.1897597185
H        3.6465422486   -1.4837280848    1.7078145700
H       -0.3580548837   -0.1779572884    2.5875145284
H        4.2576186478    0.7548911932    2.6841278433
H        5.1439854642   -1.6042372352    6.1719062040
H        1.3546195981   -0.0154369822    4.3194330187
H        3.0034372629   -1.9114147534    5.0393389755
26   

C        0.7770421277   -1.2480464887   -0.3972072850
C        7.2294815148    0.5537612468    4.6449148197
C        2.1311391068   -1.4040093921   -0.0883800315
C       -0.1210833778   -0.8567083206    0.5991489999
C        6.4404460928    0.9007428796    3.5447761174
C        6.7220790579   -0.3124852888    5.6168507404
C        2.5848879699   -1.1665898890    1.2146335996
C        0.3359817348   -0.6233692496    1.9014187545
C        5.1472109280    0.3797660626    3.4173704640
C        5.4274667144   -0.8287275751    5.4874752054
C        1.6934085966   -0.7720619192    2.2244121727
C        4.6259597156   -0.4921036902    4.3859685320
C        2.1578759491   -0.5400479043    3.5956709670
C        3.2656144878   -1.0267294776    4.2692673555
H        0.4239483602   -1.4329308713   -1.4054513084
H        8.2305968378    0.9575310827    4.7456744950
H        2.8304258765   -1.7132681506   -0.8567906599
H       -1.1725693304   -0.7360936559    0.3645062277
H        6.8278102581    1.5771650286    2.7914502739
H        7.3299656841   -0.5830577065    6.4727086833
H        3.6352779671   -1.3017943108    1.4447613743
H       -0.3704950800   -0.3250541663    2.6671755093
H        4.5406147762    0.6649929994    2.5657571317
H        5.0426334077   -1.4957828506    6.2499875112
H        1.5620895824    0.1597907379    4.1694264195
H        3.1051247129   -1.9820406582    4.7546069590
26   

C        0.5707875913   -1.3502632786   -0.4052150494
C        7.2868561298    0.6058624429    4.8619794397
C        1.9546069087   -1.4289912150   -0.2237809117
C       -0.2495791210   -0.9809716858    0.6642573154
C        6.6203426916    0.9269424650    3.6759169568
C        6.6809245765   -0.2453394927    5.7901229193
C        2.5154052037   -1.1355765560    1.0251562548
C        0.3145841109   -0.6954438937    1.9130520322
C        5.3512441920    0.3942043827    3.4189932264
C        5.4090484702   -0.7699920915    5.5325231228
C        1.7020788707   -0.7673012048    2.1067256792
C        4.7316146768   -0.4582310334    4.3443728015
C        2.2851939880   -0.4799935910    3.4189424652
C        3.3957663806   -0.9998907843    4.0864675477
H        0.1347935205   -1.5768874611   -1.3716400554
H        8.2696904708    1.0172552945    5.0625231664
H        2.5938752673   -1.7206840562   -1.0491966448
H       -1.3231618583   -0.9176475389    0.5277373211
H        7.0843968530    1.5914192687    2.9560676431
H        7.1946430699   -0.4978231241    6.7107602721
H        3.5885830137   -1.2053437564    1.1603498008
H       -0.3302540603   -0.4145758659    2.7375784508
H        4.8374527413    0.6529659805    2.5003429380
H        4.9453704313   -1.4253996840    6.2605288911
H        1.7736340025    0.2984223783    3.9723713067
H        3.2416962752   -2.0032128249    4.4653025775
