26   
Generated by ForceBalance from scan.xyz: Frame 1 of 24
C       -7.3321602677   -0.6323272977   -0.5203697908
C       -5.9492751319   -0.3727767691   -0.2871382613
C        0.8791399750    0.6562422086    2.1606161970
C       -7.9985283259   -0.9776796169    0.6299235429
C       -5.5831844189   -0.5242013762    1.0366582775
C       -0.1778749268    0.5929674617    1.2610267113
C        0.5652260983    0.3734332449    3.5023227736
C       -1.6040206475    0.0033141985    2.9464659129
C       -4.2569547772   -0.3322097216    1.5872040109
C        0.0073714197    0.8726955093   -0.2054734547
N       -1.4323581634    0.2677882005    1.6479966691
N       -0.6484607296    0.0371742927    3.9092798419
N       -4.0641132009   -0.5110418872    2.8544799693
N       -2.8439281058   -0.3473185611    3.4360109423
O        1.5551505059    0.4050913754    4.4246537732
S       -6.9545357504   -0.9924872118    2.0142292438
H       -7.8102378622   -0.5665139987   -1.4922591953
H       -5.2431294736   -0.0845405925   -1.0599444838
H        1.8906120890    0.9075503451    1.8650752505
H       -9.0468740806   -1.2248477900    0.7424845339
H       -3.4660855265   -0.0409470654    0.9005927417
H       -0.2974910219    0.0003452192   -0.7922457089
H       -0.6341596577    1.7067740148   -0.5075115358
H        1.0444342689    1.1180422551   -0.4445109290
H       -2.8602210476   -0.5215466593    4.4323573203
H        1.2105580319   -0.0414658388    5.2197655841
26   
Generated by ForceBalance from scan.xyz: Frame 2 of 24
C       -7.3299780158   -0.6451282587   -0.5261401643
C       -5.9490769710   -0.3769030109   -0.2910513188
C        0.8701899832    0.6678053823    2.1774937788
C       -7.9984146798   -0.9889931037    0.6234047385
C       -5.5862912700   -0.5204258571    1.0345227890
C       -0.1832288962    0.6036568688    1.2724069008
C        0.5497326848    0.4040944959    3.5209616788
C       -1.6155712373    0.0269247321    2.9565508835
C       -4.2627233410   -0.3186825234    1.5877937523
C        0.0105792854    0.8662395710   -0.1961683111
N       -1.4394112408    0.2858436668    1.6569933342
N       -0.6644084311    0.0651897803    3.9232694455
N       -4.0746550470   -0.4912450952    2.8566378631
N       -2.8572900738   -0.3224887031    3.4423989818
O        1.5423137461    0.4326000437    4.4470353197
S       -6.9579261187   -0.9916755072    2.0103694003
H       -7.8056665984   -0.5862095116   -1.4996299853
H       -5.2424588688   -0.0882404553   -1.0632775951
H        1.8849469370    0.9081858178    1.8841976382
H       -9.0457707995   -1.2412233416    0.7340023769
H       -3.4710126141   -0.0264677613    0.9025375466
H       -0.3000449042   -0.0087967315   -0.7758274845
H       -0.6218078040    1.7033823077   -0.5089300583
H        1.0507530868    1.1001184269   -0.4331656810
H       -2.8776677540   -0.4889208387    4.4400661856
H        1.2984963006   -0.1959876924    5.1494629962
26   
Generated by ForceBalance from scan.xyz: Frame 3 of 24
C       -7.3300756014   -0.6560481912   -0.5307788876
C       -5.9502760014   -0.3831081298   -0.2947877847
C        0.8618117672    0.6786298460    2.1861024408
C       -7.9992507689   -0.9958239056    0.6195673744
C       -5.5892368332   -0.5190054296    1.0321007088
C       -0.1886421071    0.6104987888    1.2759735062
C        0.5381981819    0.4278725881    3.5303703453
C       -1.6238964668    0.0444175828    2.9608179551
C       -4.2671160869   -0.3107991302    1.5863165917
C        0.0108000951    0.8612712340   -0.1939172768
N       -1.4447490863    0.2960330652    1.6594640775
N       -0.6762018761    0.0893440962    3.9303424306
N       -4.0822011534   -0.4765150830    2.8565462202
N       -2.8669920313   -0.3025223151    3.4449358140
O        1.5333638919    0.4656649912    4.4624470283
S       -6.9611038318   -0.9888558616    2.0082442096
H       -7.8044357486   -0.6031961779   -1.5052681387
H       -5.2432067758   -0.0964003487   -1.0673313873
H        1.8779071472    0.9160242045    1.8950142437
H       -9.0461331164   -1.2501316925    0.7298483375
H       -3.4748834963   -0.0200361017    0.9010339219
H       -0.2970628013   -0.0183384067   -0.7681205348
H       -0.6205700272    1.6957073150   -0.5157898326
H        1.0518120811    1.0938649412   -0.4284752360
H       -2.8897107218   -0.4618766025    4.4438024557
H        1.4287787361   -0.3072000599    5.0429904988
26   
Generated by ForceBalance from scan.xyz: Frame 4 of 24
C       -7.3260750232   -0.6577281641   -0.5456184341
C       -5.9465303543   -0.3906372390   -0.3016615981
C        0.8475388792    0.6799044852    2.2233196444
C       -8.0048356871   -0.9852086362    0.6026901736
C       -5.5953088271   -0.5186455416    1.0286687631
C       -0.1954031846    0.6060063777    1.3030554886
C        0.5160354078    0.4329055218    3.5654283110
C       -1.6411699259    0.0482786010    2.9817448470
C       -4.2759897131   -0.3138516137    1.5907646472
C        0.0144888133    0.8540575461   -0.1658732877
N       -1.4523859412    0.2913992845    1.6792965890
N       -0.7011409403    0.0989057425    3.9581863591
N       -4.0995889888   -0.4705726105    2.8633741911
N       -2.8878653017   -0.2959893023    3.4583498477
O        1.5052441300    0.4900871025    4.5124491694
S       -6.9764837316   -0.9736875427    1.9985926297
H       -7.7933537715   -0.6095452383   -1.5237675210
H       -5.2325261213   -0.1135400584   -1.0713269752
H        1.8645453909    0.9227763337    1.9398688684
H       -9.0538455061   -1.2329345671    0.7075920948
H       -3.4779123202   -0.0325303464    0.9083358078
H       -0.2942012026   -0.0244259319   -0.7412890595
H       -0.6103129736    1.6915416125   -0.4926955376
H        1.0581365612    1.0812646600   -0.3939497706
H       -2.9173822762   -0.4472213789    4.4584100269
H        1.5693437739   -0.3758907112    4.9474471576
26   
Generated by ForceBalance from scan.xyz: Frame 5 of 24
C       -7.3275301542   -0.6610448974   -0.5532300738
C       -5.9480020908   -0.3966603845   -0.3063781951
C        0.8386317719    0.6804145695    2.2335106568
C       -8.0106159933   -0.9801517043    0.5948871994
C       -5.6012616767   -0.5182924588    1.0257632956
C       -0.2004516338    0.5991809363    1.3083174130
C        0.5059484157    0.4293514050    3.5743640361
C       -1.6502300130    0.0493777705    2.9860446535
C       -4.2831122451   -0.3141546628    1.5908257936
C        0.0131820160    0.8490422076   -0.1597766289
N       -1.4569824573    0.2831954058    1.6820311747
N       -0.7129783070    0.1031567907    3.9649403245
N       -4.1096322814   -0.4638125278    2.8647549462
N       -2.8991668502   -0.2878516395    3.4615585918
O        1.4864268816    0.5136025800    4.5356954811
S       -6.9866844597   -0.9639090820    1.9939546684
H       -7.7916839429   -0.6169280724   -1.5330596046
H       -5.2308152338   -0.1259151589   -1.0753505091
H        1.8535383241    0.9358190227    1.9529657293
H       -9.0606610201   -1.2242279491    0.6979408641
H       -3.4826890210   -0.0390043825    0.9086474613
H       -0.2878938520   -0.0314044059   -0.7362723293
H       -0.6153492252    1.6826464488   -0.4892017364
H        1.0563656492    1.0822047853   -0.3840365179
H       -2.9304481378   -0.4341842145    4.4624052074
H        1.7419995390   -0.3810344651    4.8119712679
26   
Generated by ForceBalance from scan.xyz: Frame 6 of 24
C       -7.3287389849   -0.6561228686   -0.5673010542
C       -5.9489081529   -0.3987839401   -0.3148371635
C        0.8237622740    0.6712901398    2.2691669841
C       -8.0198445015   -0.9662595487    0.5784906025
C       -5.6098598822   -0.5167143578    1.0196159946
C       -0.2065169706    0.5834012327    1.3346790796
C        0.4837169703    0.4089404448    3.6067527325
C       -1.6688864868    0.0374165763    3.0026183978
C       -4.2934730386   -0.3179333993    1.5904955554
C        0.0162373253    0.8407756849   -0.1307951392
N       -1.4648098424    0.2642103448    1.6988356189
N       -0.7389150868    0.0909081476    3.9886833588
N       -4.1296223818   -0.4636618658    2.8661734739
N       -2.9222913665   -0.2932097842    3.4705996338
O        1.4437664205    0.5200552956    4.5888755047
S       -7.0028554844   -0.9499338720    1.9825732883
H       -7.7876092324   -0.6135121555   -1.5496769266
H       -5.2262345824   -0.1356421677   -1.0813139105
H        1.8368470655    0.9422923974    1.9958573296
H       -9.0718404504   -1.2036856367    0.6771358523
H       -3.4874533709   -0.0504462529    0.9118665349
H       -0.2743100213   -0.0397875645   -0.7125458741
H       -0.6154719731    1.6711024472   -0.4622712574
H        1.0595475164    1.0814374945   -0.3465205145
H       -2.9605636274   -0.4360738262    4.4717943367
H        1.8919313590   -0.3326499810    4.7052580850
26   
Generated by ForceBalance from scan.xyz: Frame 7 of 24
C       -7.3300701985   -0.6499400545   -0.5777571684
C       -5.9499205902   -0.3993659184   -0.3202612119
C        0.8135989428    0.6597211294    2.2914332600
C       -8.0273920207   -0.9534051779    0.5660562712
C       -5.6167604297   -0.5157005128    1.0158210917
C       -0.2109108860    0.5678410317    1.3519398650
C        0.4704178262    0.3839979991    3.6273291186
C       -1.6809182625    0.0237238410    3.0128439284
C       -4.3016878659   -0.3225875851    1.5916726726
C        0.0169693570    0.8337891515   -0.1112607713
N       -1.4707323861    0.2460938432    1.7093845666
N       -0.7551599899    0.0739583279    4.0031053423
N       -4.1432840386   -0.4658581303    2.8683390461
N       -2.9374956377   -0.2997421832    3.4768904159
O        1.4091654997    0.5136662771    4.6257040119
S       -7.0159539751   -0.9389803420    1.9741775777
H       -7.7847317213   -0.6074269533   -1.5620964938
H       -5.2227410247   -0.1421167806   -1.0844710440
H        1.8239822117    0.9443646280    2.0206322802
H       -9.0810279580   -1.1849714138    0.6610702026
H       -3.4915807293   -0.0611287067    0.9155727954
H       -0.2641629359   -0.0466957321   -0.6977925252
H       -0.6193391668    1.6605911240   -0.4425741676
H        1.0595927504    1.0825621861   -0.3212692676
H       -2.9794937386   -0.4417035921    4.4781196423
H        2.0300425607   -0.2311566265    4.5903599679
26   
Generated by ForceBalance from scan.xyz: Frame 8 of 24
C       -7.3305911732   -0.6418185899   -0.5866721763
C       -5.9503620456   -0.3965618094   -0.3244808799
C        0.8067502388    0.6409457283    2.3104315080
C       -8.0331277491   -0.9423995451    0.5547137855
C       -5.6224730012   -0.5139966423    1.0128067037
C       -0.2143698408    0.5508518888    1.3683152473
C        0.4594549986    0.3545538553    3.6451346547
C       -1.6910227915    0.0075754122    3.0225414567
C       -4.3085769249   -0.3260357130    1.5930876760
C        0.0181949891    0.8244847064   -0.0927706813
N       -1.4763795514    0.2295929561    1.7198424535
N       -0.7688181171    0.0516101883    4.0158832629
N       -4.1550266403   -0.4702827168    2.8702017333
N       -2.9504559339   -0.3099601360    3.4826018338
O        1.3800248971    0.4845679398    4.6546741455
S       -7.0266204001   -0.9316711376    1.9663957388
H       -7.7816322681   -0.5977531586   -1.5726110344
H       -5.2194673347   -0.1423575032   -1.0861679030
H        1.8160577649    0.9310691141    2.0396673167
H       -9.0879757874   -1.1698987065    0.6460359295
H       -3.4950763402   -0.0677182039    0.9198443068
H       -0.2570853787   -0.0548479525   -0.6838154154
H       -0.6203504029    1.6498918953   -0.4230986654
H        1.0606570101    1.0780087927   -0.2981246320
H       -2.9957021232   -0.4540387873    4.4834075917
H        2.1330280621   -0.1039217901    4.4857339437
26   
Generated by ForceBalance from scan.xyz: Frame 9 of 24
C       -7.3336222356   -0.6329264054   -0.5929215873
C       -5.9529816993   -0.3925004659   -0.3282993153
C        0.8026780260    0.6224269887    2.3223200250
C       -8.0390975059   -0.9330820399    0.5467533336
C       -5.6276197503   -0.5131493982    1.0092950693
C       -0.2173237703    0.5375351285    1.3795379114
C        0.4512099659    0.3297186315    3.6562313429
C       -1.6987844951   -0.0061093855    3.0283031783
C       -4.3139935490   -0.3304934419    1.5919547451
C        0.0203008649    0.8164020304   -0.0797547793
N       -1.4813765116    0.2184969981    1.7263652215
N       -0.7791762806    0.0312376358    4.0232125919
N       -4.1635629956   -0.4778503977    2.8690271244
N       -2.9599820354   -0.3220273666    3.4845756429
O        1.3589400300    0.4468764772    4.6716423594
S       -7.0346517988   -0.9278471141    1.9599631743
H       -7.7829240368   -0.5858759501   -1.5795180537
H       -5.2200543296   -0.1395058265   -1.0884369240
H        1.8123762171    0.9111305132    2.0494741836
H       -9.0948135321   -1.1573675941    0.6360057181
H       -3.4983786323   -0.0734656429    0.9207715255
H       -0.2542278546   -0.0605637943   -0.6746137630
H       -0.6165238552    1.6436093366   -0.4087638479
H        1.0636539881    1.0694700402   -0.2814648012
H       -3.0075109831   -0.4703133667    4.4846648051
H        2.2005982234    0.0489229852    4.3968383462
26   
Generated by ForceBalance from scan.xyz: Frame 10 of 24
C       -7.3343986599   -0.6215113114   -0.6014140950
C       -5.9540709942   -0.3849753785   -0.3315234161
C        0.7965857435    0.6046271307    2.3342339107
C       -8.0440271389   -0.9255168726    0.5346340002
C       -5.6329782971   -0.5124089737    1.0064521823
C       -0.2223149996    0.5270941540    1.3901429836
C        0.4425417185    0.3127716851    3.6688376778
C       -1.7055061067   -0.0202086928    3.0352526375
C       -4.3208036865   -0.3350950222    1.5942727256
C        0.0168934677    0.8071975680   -0.0687504060
N       -1.4876111956    0.2105301590    1.7341476213
N       -0.7890187347    0.0137060283    4.0319310423
N       -4.1711555531   -0.4881048266    2.8707447800
N       -2.9678176174   -0.3366795422    3.4880029530
O        1.3450664696    0.4025260258    4.6853395028
S       -7.0437608083   -0.9287235635    1.9508495558
H       -7.7805646958   -0.5690851428   -1.5891642254
H       -5.2183373672   -0.1299751000   -1.0882755091
H        1.8083650660    0.8844301310    2.0580592972
H       -9.1004384667   -1.1481862355    0.6196313678
H       -3.5034031890   -0.0764508574    0.9259171633
H       -0.2597673853   -0.0682732153   -0.6647711766
H       -0.6176571460    1.6364892072   -0.3969328684
H        1.0609823163    1.0577551939   -0.2699134706
H       -3.0166544737   -0.4899756631    4.4872615454
H        2.2322032298    0.2101935124    4.3407671111
26   
Generated by ForceBalance from scan.xyz: Frame 11 of 24
C       -7.3350497752   -0.6205575492   -0.6118011040
C       -5.9593365224   -0.3657873040   -0.3349582299
C        0.7819835328    0.6199365336    2.3551425830
C       -8.0332109516   -0.9966090508    0.5096880620
C       -5.6302145221   -0.5516117711    0.9941780223
C       -0.2402636462    0.5711928600    1.4130787213
C        0.4353914789    0.2677206246    3.6776228627
C       -1.7074023542   -0.0793676387    3.0348483093
C       -4.3200732370   -0.3730808713    1.5861473926
C       -0.0091983292    0.9168027879   -0.0330287412
N       -1.4989522631    0.2184361269    1.7455808661
N       -0.7889936199   -0.0728806060    4.0292914122
N       -4.1638355587   -0.5861237531    2.8531096284
N       -2.9617882223   -0.4424945688    3.4746793451
O        1.3397281109    0.3015349185    4.6913438414
S       -7.0272723091   -1.0464237522    1.9210058727
H       -7.7862948625   -0.5297624708   -1.5944457400
H       -5.2327262772   -0.0568851358   -1.0803643712
H        1.7901679496    0.9186112821    2.0840580278
H       -9.0838911125   -1.2475554207    0.5865852801
H       -3.5109189630   -0.0631348008    0.9296466122
H       -0.2684558366    0.0613071399   -0.6647992706
H       -0.6616468521    1.7454834975   -0.3256129112
H        1.0290655612    1.1974076712   -0.2246138662
H       -3.0046881466   -0.6449415968    4.4654165156
H        2.2335658447    0.3580496092    4.3160423530
26   
Generated by ForceBalance from scan.xyz: Frame 12 of 24
C       -7.3374529849   -0.6100450512   -0.6055342724
C       -5.9611244209   -0.3561336815   -0.3309491426
C        0.7895607601    0.6059054425    2.3489587317
C       -8.0310230957   -0.9939170904    0.5161543509
C       -5.6271521483   -0.5503432333    0.9957897790
C       -0.2352929173    0.5671675217    1.4093502936
C        0.4421519955    0.2608758788    3.6732994231
C       -1.7003505521   -0.0878292265    3.0308875676
C       -4.3152066766   -0.3745946456    1.5845486219
C       -0.0042949593    0.9106766593   -0.0372816680
N       -1.4947173548    0.2185485611    1.7430723872
N       -0.7815050880   -0.0832275086    4.0245378787
N       -4.1565796372   -0.5960479174    2.8497331246
N       -2.9536608150   -0.4552481632    3.4702702423
O        1.3528900340    0.2602515770    4.6802447983
S       -7.0206565383   -1.0523374057    1.9240122489
H       -7.7920439420   -0.5132017973   -1.5860710430
H       -5.2371501704   -0.0418011147   -1.0766363668
H        1.8015223046    0.8872415319    2.0728812804
H       -9.0812171335   -1.2462487821    0.5950085397
H       -3.5079492058   -0.0597733468    0.9280131699
H       -0.2697496744    0.0566295115   -0.6683739565
H       -0.6522104832    1.7432403056   -0.3290057771
H        1.0352903814    1.1851648756   -0.2306133839
H       -2.9948272878   -0.6639838935    4.4597713136
H        2.2170762713    0.5246002487    4.3247433511
26   
Generated by ForceBalance from scan.xyz: Frame 13 of 24
C       -7.3386924180   -0.5985739703   -0.5977993716
C       -5.9613861730   -0.3474032611   -0.3256405924
C        0.7989615366    0.5928413429    2.3381394116
C       -8.0294322044   -0.9888606031    0.5234249413
C       -5.6238008175   -0.5501925343    0.9989033771
C       -0.2296969446    0.5638901539    1.4022942104
C        0.4522963662    0.2544569354    3.6642431462
C       -1.6912996886   -0.0955501571    3.0253506775
C       -4.3100474496   -0.3791501187    1.5850205790
C       -0.0007008949    0.9054297159   -0.0451041105
N       -1.4894901232    0.2191901300    1.7390835092
N       -0.7698320149   -0.0930359631    4.0169942277
N       -4.1470432221   -0.6080315275    2.8483562748
N       -2.9424869463   -0.4685695009    3.4660131403
O        1.3737264631    0.2216972595    4.6624799613
S       -7.0150459762   -1.0569373561    1.9279406314
H       -7.7959970371   -0.4953043908   -1.5764141290
H       -5.2393007934   -0.0290190189   -1.0714422141
H        1.8142159644    0.8570997741    2.0578480868
H       -9.0795944545   -1.2408852240    0.6036892703
H       -3.5047114839   -0.0607844929    0.9278495007
H       -0.2723364186    0.0526808986   -0.6752863205
H       -0.6449741041    1.7413718610   -0.3353480376
H        1.0397636839    1.1745609358   -0.2411688246
H       -2.9802095828   -0.6836057767    4.4543048570
H        2.1770194986    0.6801571990    4.3666270227
26   
Generated by ForceBalance from scan.xyz: Frame 14 of 24
C       -7.3421611256   -0.5893832718   -0.5958456766
C       -5.9645823439   -0.3389310262   -0.3244760749
C        0.8007451277    0.5772871905    2.3341683456
C       -8.0311063194   -0.9864208061    0.5241318318
C       -5.6249974719   -0.5490376637    0.9984071678
C       -0.2294126972    0.5584358155    1.3993190398
C        0.4539134253    0.2433933948    3.6607833287
C       -1.6906007464   -0.1034312960    3.0218977288
C       -4.3104666689   -0.3804498727    1.5833446966
C       -0.0010292493    0.8989903991   -0.0484127633
N       -1.4901273211    0.2182264246    1.7373958844
N       -0.7677493436   -0.1050999181    4.0132839667
N       -4.1460667159   -0.6164508711    2.8452175779
N       -2.9409578153   -0.4793295850    3.4622557878
O        1.3871636959    0.1816727772    4.6513077013
S       -7.0145653935   -1.0618681004    1.9266649550
H       -7.8009867158   -0.4808680718   -1.5731679932
H       -5.2438020259   -0.0159522047   -1.0695732509
H        1.8192408969    0.8269615193    2.0538476198
H       -9.0810052616   -1.2395365952    0.6044961806
H       -3.5062204268   -0.0579353034    0.9268553465
H       -0.2802206108    0.0488016713   -0.6787329032
H       -0.6396460537    1.7399491422   -0.3368525619
H        1.0409654078    1.1607059442   -0.2461998374
H       -2.9770809667   -0.7006127846    4.4492376062
H        2.1012204550    0.8096287553    4.4550229290
26   
Generated by ForceBalance from scan.xyz: Frame 15 of 24
C       -7.3435545809   -0.5808918807   -0.5855672494
C       -5.9646079931   -0.3338186314   -0.3182668602
C        0.8121725991    0.5687108876    2.3170385686
C       -8.0288743990   -0.9797227641    0.5359997531
C       -5.6204339605   -0.5482649489    1.0027848745
C       -0.2218861122    0.5551711426    1.3858903849
C        0.4689940385    0.2360526885    3.6437548150
C       -1.6782274927   -0.1106068726    3.0121717360
C       -4.3034679380   -0.3838633342    1.5833563279
C        0.0022405566    0.8962307093   -0.0623175134
N       -1.4818266031    0.2161528710    1.7286422278
N       -0.7508315337   -0.1135974794    4.0005846289
N       -4.1341834431   -0.6236932511    2.8439496856
N       -2.9265569194   -0.4885537751    3.4564651627
O        1.4182863363    0.1555087634    4.6242792928
S       -7.0075027485   -1.0611047943    1.9346805631
H       -7.8057592838   -0.4688485254   -1.5609062054
H       -5.2459296508   -0.0101604630   -1.0650833746
H        1.8321905725    0.8094852425    2.0362627294
H       -9.0789221775   -1.2311472771    0.6195466677
H       -3.5013213009   -0.0607835457    0.9246044180
H       -0.2805197758    0.0471472682   -0.6925443329
H       -0.6356081422    1.7387045602   -0.3481449874
H        1.0441224937    1.1560565898   -0.2629652972
H       -2.9583838256   -0.7137774119    4.4427137322
H        2.0130159362    0.9199257101    4.5587860083
26   
Generated by ForceBalance from scan.xyz: Frame 16 of 24
C       -7.3462629406   -0.5761102267   -0.5739800565
C       -5.9663378145   -0.3282751901   -0.3126278442
C        0.8239886188    0.5578126937    2.2986164356
C       -8.0272644785   -0.9773266453    0.5493772207
C       -5.6169658985   -0.5446514796    1.0067355460
C       -0.2126764850    0.5483067750    1.3693027868
C        0.4863252202    0.2223082578    3.6242700681
C       -1.6644075009   -0.1179715242    2.9996828413
C       -4.2977301141   -0.3802278935    1.5819829813
C        0.0070818065    0.8925339158   -0.0787711027
N       -1.4715569285    0.2106536160    1.7162886649
N       -0.7331346801   -0.1241336104    3.9854923050
N       -4.1231118061   -0.6227724989    2.8413837963
N       -2.9122175245   -0.4922672747    3.4484655199
O        1.4519139894    0.1347154623    4.5955566924
S       -6.9998797581   -1.0599899666    1.9435036265
H       -7.8125310772   -0.4628794776   -1.5472271175
H       -5.2510388283   -0.0029450393   -1.0619704380
H        1.8447409734    0.7952740355    2.0196366760
H       -9.0767890862   -1.2296901247    0.6366805035
H       -3.4986228739   -0.0554439275    0.9203994400
H       -0.2769136197    0.0446160136   -0.7100529372
H       -0.6317526591    1.7353590874   -0.3613826570
H        1.0484086316    1.1528590007   -0.2814179638
H       -2.9401972874   -0.7200740096    4.4342371475
H        1.8997748628    0.9908888380    4.6857461542
26   
Generated by ForceBalance from scan.xyz: Frame 17 of 24
C       -7.3468506181   -0.5702231591   -0.5597787344
C       -5.9646001719   -0.3282645483   -0.3053546715
C        0.8404393453    0.5558291372    2.2620567291
C       -8.0226490496   -0.9651821655    0.5689236961
C       -5.6085708282   -0.5425612834    1.0126077702
C       -0.2028399260    0.5439770329    1.3389208090
C        0.5142503721    0.2119750715    3.5863598966
C       -1.6435325795   -0.1219537451    2.9807747332
C       -4.2855452580   -0.3828890505    1.5804716359
C        0.0047443417    0.8928667681   -0.1097983431
N       -1.4581810750    0.2044134761    1.6955908484
N       -0.7036968123   -0.1301926235    3.9589241853
N       -4.1038996805   -0.6229532235    2.8393862907
N       -2.8889075687   -0.4938915941    3.4385393288
O        1.4980714162    0.1382585881    4.5463444909
S       -6.9886707203   -1.0490413950    1.9581374661
H       -7.8178219740   -0.4575671808   -1.5308413687
H       -5.2517355692   -0.0083273992   -1.0593034652
H        1.8588605323    0.8000588063    1.9820597908
H       -9.0727798507   -1.2125809645    0.6627452119
H       -3.4889905666   -0.0631576295    0.9133735040
H       -0.2739318608    0.0428238763   -0.7407215860
H       -0.6442203920    1.7293935692   -0.3878819625
H        1.0423211434    1.1635367343   -0.3177268139
H       -2.9106031589   -0.7219085658    4.4243939102
H        1.7716230051    1.0327120617    4.8044646276
26   
Generated by ForceBalance from scan.xyz: Frame 18 of 24
C       -7.3459298395   -0.5678513877   -0.5526248911
C       -5.9620788869   -0.3306871418   -0.3025073235
C        0.8482905328    0.5532399588    2.2497216344
C       -8.0212400894   -0.9553681335    0.5789488750
C       -5.6045956400   -0.5412428389    1.0156675457
C       -0.1966856186    0.5352728121    1.3276830369
C        0.5278336948    0.1985130203    3.5707224834
C       -1.6345576847   -0.1274493435    2.9746480066
C       -4.2795403532   -0.3847964637    1.5796542268
C        0.0051921577    0.8908599543   -0.1201753188
N       -1.4500996902    0.1930045153    1.6876878387
N       -0.6912316935   -0.1366372215    3.9494088102
N       -4.0968731995   -0.6206161450    2.8392151126
N       -2.8805668713   -0.4932412567    3.4362186866
O        1.5209046311    0.1531962335    4.5248382878
S       -6.9847555037   -1.0380226810    1.9663216911
H       -7.8184829743   -0.4571716422   -1.5231403352
H       -5.2494482810   -0.0169294623   -1.0592802555
H        1.8643695401    0.8101351936    1.9739281765
H       -9.0722119274   -1.1979410446    0.6758796761
H       -3.4830137241   -0.0712704897    0.9095811094
H       -0.2711320170    0.0415805537   -0.7532190057
H       -0.6482788674    1.7252844781   -0.3939626561
H        1.0410807155    1.1665279337   -0.3296726301
H       -2.9012746680   -0.7198503212    4.4223679667
H        1.6047610296    1.0213006878    4.9501002023
26   
Generated by ForceBalance from scan.xyz: Frame 19 of 24
C       -7.3479219475   -0.5698746166   -0.5399326813
C       -5.9625438112   -0.3336912214   -0.2973206057
C        0.8621495514    0.5588532038    2.2266343510
C       -8.0183469623   -0.9502551512    0.5969376015
C       -5.5988559534   -0.5376948076    1.0201544004
C       -0.1855794793    0.5307308330    1.3080851784
C        0.5475260220    0.1953998032    3.5457821386
C       -1.6191601527   -0.1263227892    2.9616505675
C       -4.2709827779   -0.3803484347    1.5772496148
C        0.0102226572    0.8907339044   -0.1394559304
N       -1.4371223439    0.1848831776    1.6722247946
N       -0.6721124385   -0.1327959468    3.9325609734
N       -4.0844435568   -0.6102498375    2.8373056673
N       -2.8653408880   -0.4843191526    3.4292556275
O        1.5444802391    0.1860720161    4.4937856575
S       -6.9753734548   -1.0271279637    1.9798272565
H       -7.8248564456   -0.4635909085   -1.5087939234
H       -5.2530024242   -0.0251309174   -1.0591044947
H        1.8744703807    0.8312099693    1.9527581067
H       -9.0692259297   -1.1906220981    0.7001878343
H       -3.4765329833   -0.0717704403    0.9024303512
H       -0.2602057820    0.0397394940   -0.7728285379
H       -0.6508716706    1.7198299808   -0.4109456341
H        1.0434440570    1.1748397909   -0.3507268472
H       -2.8839309924   -0.7066522817    4.4163295755
H        1.4458843456    0.9607226797    5.0702088395
26   
Generated by ForceBalance from scan.xyz: Frame 20 of 24
C       -7.3433676545   -0.5727042266   -0.5307722887
C       -5.9563898955   -0.3410429716   -0.2928276284
C        0.8705293656    0.5709016751    2.2059369896
C       -8.0142712569   -0.9414077827    0.6096299542
C       -5.5916870233   -0.5369343221    1.0255540696
C       -0.1793604959    0.5306987702    1.2915184880
C        0.5636348207    0.2045232539    3.5264376341
C       -1.6061484153   -0.1198284062    2.9530676023
C       -4.2621220583   -0.3816813363    1.5793472565
C        0.0074881932    0.8905096233   -0.1572582702
N       -1.4289137397    0.1803624556    1.6609274954
N       -0.6558667364   -0.1188912338    3.9208321039
N       -4.0722933459   -0.6021229858    2.8405598625
N       -2.8509506127   -0.4736571779    3.4276411296
O        1.5593370368    0.2293755807    4.4679828018
S       -6.9689841770   -1.0127200774    1.9910842801
H       -7.8213752018   -0.4714581882   -1.4996342664
H       -5.2467663431   -0.0415377169   -1.0581471130
H        1.8783778925    0.8574659646    1.9306828849
H       -9.0661158189   -1.1760334978    0.7162797100
H       -3.4678028963   -0.0818401653    0.9004487474
H       -0.2589077373    0.0362573930   -0.7880128803
H       -0.6613666687    1.7138141327   -0.4273113959
H        1.0375820194    1.1821615739   -0.3733419725
H       -2.8671511549   -0.6889443683    4.4162048856
H        1.3075214832    0.8514504180    5.1700216814
26   
Generated by ForceBalance from scan.xyz: Frame 21 of 24
C       -7.3423105546   -0.5816026395   -0.5228928009
C       -5.9546435214   -0.3490825197   -0.2897450719
C        0.8787544960    0.5840140726    2.1854670104
C       -8.0104378352   -0.9407930061    0.6221511446
C       -5.5867018055   -0.5346759587    1.0292099101
C       -0.1738886258    0.5353275555    1.2766308657
C        0.5747243175    0.2226938003    3.5089328929
C       -1.5979808593   -0.1047574241    2.9444976919
C       -4.2556673531   -0.3760202378    1.5785075955
C        0.0082828954    0.8894373678   -0.1740990107
N       -1.4234212899    0.1849894575    1.6504436682
N       -0.6447599303   -0.0963619569    3.9095847114
N       -4.0642457121   -0.5869615515    2.8410549869
N       -2.8416183170   -0.4548600859    3.4249759402
O        1.5657773961    0.2683560021    4.4450213726
S       -6.9619968815   -1.0018444053    2.0017620612
H       -7.8225613256   -0.4877005142   -1.4913936681
H       -5.2466053304   -0.0561199776   -1.0590406812
H        1.8840780284    0.8757945709    1.9066403735
H       -9.0621687300   -1.1738448112    0.7332353243
H       -3.4622173537   -0.0821372135    0.8959794878
H       -0.2597368677    0.0323805735   -0.8003492821
H       -0.6620984359    1.7111632681   -0.4451596153
H        1.0374567526    1.1809077630   -0.3947745776
H       -2.8566778742   -0.6622932471    4.4151230361
H        1.2059636166    0.6957960303    5.2407199879
26   
Generated by ForceBalance from scan.xyz: Frame 22 of 24
C       -7.3415726490   -0.5925213866   -0.5160612263
C       -5.9540727194   -0.3551381461   -0.2867913381
C        0.8840992419    0.6042825677    2.1642965648
C       -8.0069196708   -0.9463103642    0.6322698502
C       -5.5834948130   -0.5317012007    1.0326491637
C       -0.1708628553    0.5471711665    1.2605214743
C        0.5819947385    0.2566957668    3.4928371754
C       -1.5914560222   -0.0823319771    2.9355802128
C       -4.2519023222   -0.3661146900    1.5786158334
C        0.0058418918    0.8876857866   -0.1941534696
N       -1.4202685539    0.1979123568    1.6397942509
N       -0.6360191540   -0.0636060541    3.8986582594
N       -4.0573806142   -0.5682849954    2.8420866916
N       -2.8331964650   -0.4310996523    3.4218201932
O        1.5687731676    0.3140749793    4.4237026728
S       -6.9559723284   -0.9962381136    2.0104449932
H       -7.8237030514   -0.5056774401   -1.4842878476
H       -5.2480676582   -0.0650373085   -1.0590332728
H        1.8881959621    0.8946738282    1.8797232562
H       -9.0578957686   -1.1811953020    0.7465923815
H       -3.4603152270   -0.0745972191    0.8929121556
H       -0.2695565566    0.0267663389   -0.8118088270
H       -0.6621171529    1.7103259249   -0.4685587957
H        1.0351178115    1.1728266058   -0.4224270869
H       -2.8467265472   -0.6288748358    4.4138641716
H        1.1477769013    0.5228539381    5.2764348421
26   
Generated by ForceBalance from scan.xyz: Frame 23 of 24
C       -7.3383570362   -0.6062686695   -0.5144396005
C       -5.9521122191   -0.3611077548   -0.2856678425
C        0.8856024326    0.6231613329    2.1571196176
C       -8.0029623370   -0.9569470389    0.6352630394
C       -5.5816477842   -0.5286968724    1.0349500200
C       -0.1707317570    0.5624837020    1.2565159854
C        0.5809413429    0.2950960144    3.4906844780
C       -1.5921378298   -0.0540659612    2.9360361041
C       -4.2512460845   -0.3538190295    1.5809688189
C        0.0060405025    0.8845577208   -0.2023424573
N       -1.4217070316    0.2195505789    1.6393143403
N       -0.6358192891   -0.0288754109    3.8983929671
N       -4.0564309479   -0.5479689220    2.8456516035
N       -2.8327263072   -0.4032989417    3.4247978828
O        1.5654776597    0.3491998012    4.4177743557
S       -6.9526695866   -0.9943188680    2.0143370372
H       -7.8202220457   -0.5269041213   -1.4834370263
H       -5.2469810408   -0.0718149705   -1.0590089677
H        1.8911942736    0.9033390592    1.8676054363
H       -9.0529220604   -1.1960778865    0.7501407355
H       -3.4604109869   -0.0625635172    0.8942873332
H       -0.2778930046    0.0193148494   -0.8099542627
H       -0.6557404113    1.7097015225   -0.4842355003
H        1.0370072062    1.1592276248   -0.4357571508
H       -2.8466716240   -0.5926233114    4.4184216715
H        1.1295764034    0.3315615856    5.2895779954
26   
Generated by ForceBalance from scan.xyz: Frame 24 of 24
C       -7.3384526109   -0.6213484783   -0.5096942798
C       -5.9531130727   -0.3680895256   -0.2842976233
C        0.8881612786    0.6452868160    2.1373872846
C       -7.9994654348   -0.9683003198    0.6432145641
C       -5.5798148791   -0.5259795062    1.0367219798
C       -0.1712747825    0.5817148091    1.2411289100
C        0.5828871161    0.3404009635    3.4765094984
C       -1.5898722537   -0.0213816295    2.9283238944
C       -4.2493221557   -0.3417762893    1.5794625642
C        0.0041559392    0.8816207567   -0.2225915686
N       -1.4228378458    0.2467815034    1.6302564546
N       -0.6308362568    0.0095749498    3.8879975654
N       -4.0519011822   -0.5276053919    2.8449526771
N       -2.8282970692   -0.3719509725    3.4216213708
O        1.5713622455    0.3844005547    4.3977104405
S       -6.9470933733   -0.9922565753    2.0209938880
H       -7.8221467313   -0.5501300332   -1.4784174649
H       -5.2505253837   -0.0799131514   -1.0603641318
H        1.8955259419    0.9118457012    1.8412341651
H       -9.0481225044   -1.2116083212    0.7611677893
H       -3.4609339566   -0.0506610935    0.8899056365
H       -0.2926649541    0.0122445684   -0.8179568636
H       -0.6487278212    1.7110789967   -0.5126412454
H        1.0373139648    1.1414067638   -0.4631898770
H       -2.8401614133   -0.5542786539    4.4165564655
H        1.1646024385    0.1451395719    5.2512982202
