35

C      3.18263    1.64937   -2.82142
C      4.12023    1.43210   -0.59163
C      5.48269    2.31575   -2.39663
C      3.03661    1.28094   -1.47592
C      4.40400    2.16206   -3.26382
C      5.33526    1.94643   -1.05031
C      0.28294   -0.07905    0.36869
C     -0.32502    0.02330   -0.86160
C      1.78532    0.73840   -0.94844
C     -0.43240   -0.60722    1.57406
C     -1.73229   -0.37190   -1.16692
C     -2.21313   -1.24868    0.00700
C      6.34120    1.77032    1.11256
C      4.58575    2.56450   -4.70399
N      1.58392    0.35845    0.31085
N      0.64069    0.55027   -1.69794
N     -1.87945   -0.60556    1.28594
O      6.43738    2.12801   -0.26593
F      3.46551    2.36926   -5.44405
F      4.91516    3.87718   -4.82559
F      5.58231    1.86223   -5.30435
H      2.36918    1.54518   -3.53034
H      3.97007    1.13742    0.43939
H      6.43376    2.71399   -2.73549
H     -0.04664   -1.61328    1.82112
H     -0.24349    0.03654    2.43959
H     -2.37740    0.51120   -1.25701
H     -1.80694   -0.93606   -2.10494
H     -3.29945   -1.36837   -0.04339
H     -1.75981   -2.25154   -0.09354
H      7.31731    1.99354    1.54443
H      6.12356    0.70248    1.23195
H      5.57122    2.36023    1.62346
H      0.52253    0.76006   -2.67974
H     -2.37008   -1.07996    2.03944
