31

C      7.60023   -3.27985   -3.21051
C      6.56295   -2.69000   -3.93943
C      7.48136   -3.43320   -1.81987
C      5.41078   -2.25428   -3.28096
C      6.33569   -3.00263   -1.15650
C      1.78685   -0.94196   -0.22103
C      0.45576   -0.73161    1.76750
C      0.62203   -0.48803    0.39384
C      5.29132   -2.40868   -1.89140
C      2.78585   -1.62482    0.49261
C      2.62141   -1.86627    1.87761
C      1.43847   -1.40689    2.48189
C     -0.15065    1.81331   -0.33856
C     -0.41736    0.29808   -0.37545
N      4.08089   -1.93426   -1.32558
N      3.98687   -2.10360   -0.07665
O      3.59193   -2.52860    2.55326
Br     1.18392   -1.74309    4.36143
H      8.49870   -3.61973   -3.71921
H      6.65164   -2.57011   -5.01588
H      8.29048   -3.89183   -1.25703
H      4.59028   -1.79292   -3.82355
H      6.22620   -3.11390   -0.08293
H      1.95419   -0.77685   -1.28071
H     -0.44179   -0.39459    2.27809
H     -0.15478    2.18660    0.69103
H     -0.91455    2.35932   -0.90264
H      0.82737    2.04655   -0.77196
H     -0.43294   -0.04301   -1.41627
H     -1.41250    0.09366    0.03562
H      3.31561   -2.60820    3.48544
