29

C      0.38507    2.09791    1.77732
C     -2.27856    2.91708    1.91833
C     -0.62108    1.20465    1.36544
C      0.08493    3.37135    2.25324
C     -1.26923    3.79152    2.32457
C     -1.92971    1.64964    1.45102
C      0.01263   -0.29917   -0.70882
C      1.18980   -1.21003   -0.28699
C     -0.28176   -0.15472    0.81546
C      2.37836    3.89849    2.62239
C     -2.82927    5.50162    2.88985
N      1.10283   -0.63567    1.08634
O      1.01071    4.28562    2.67664
O     -1.48261    5.05183    2.80065
F     -2.94521    0.82027    1.05722
H      1.40623    1.74126    1.71708
H     -3.32624    3.18960    1.95379
H      0.34476    0.64471   -1.14651
H     -0.77638   -0.73621   -1.32323
H      0.92683   -2.27572   -0.34170
H      2.15677   -1.05486   -0.77682
H     -1.05354   -0.87627    1.11450
H      2.94415    4.75239    2.99787
H      2.69227    3.67647    1.59453
H      2.57358    3.02423    3.25619
H     -2.77847    6.51568    3.28835
H     -3.41734    4.87254    3.57009
H     -3.31088    5.52200    1.90398
H      1.17113   -1.31223    1.84469
