30

C      3.37620   -0.05259    0.40448
C      2.12893   -0.39120   -0.09218
C      4.79493    1.45762    1.81680
C      1.12769    1.45800    1.10674
C      3.53671    1.05273    1.26791
C      4.94707    2.53117    2.65518
C      0.98440    0.36533    0.25578
C      2.39207    1.80811    1.61506
C      3.76239    3.33828    3.03053
C      6.29763    2.83717    3.14869
C     -0.36729   -0.01698   -0.29715
C      8.51885    5.30981    3.85893
C      8.00070    3.93740    4.30397
N      6.60139    3.78832    3.94141
N      2.56140    2.88454    2.45796
O      3.73831    4.32148    3.76110
H      4.25125   -0.63865    0.13296
H      2.02115   -1.24534   -0.75605
H      5.67586    0.87472    1.54924
H      0.25792    2.04997    1.38455
H      7.06938    2.14462    2.76297
H     -0.62557   -1.04557   -0.02215
H     -1.15715    0.64075    0.07459
H     -0.37039    0.03607   -1.39164
H      8.49866    5.39632    2.76760
H      7.89245    6.10465    4.27355
H      9.54924    5.45963    4.19930
H      8.06494    3.87097    5.39762
H      8.63790    3.13809    3.88462
H      1.75535    3.44351    2.72105
