18

C      5.50237   -2.14235    1.29914
C      4.71088   -6.61813    2.58418
C      4.14471   -6.07540    3.70688
C      4.53045   -5.78167    1.43895
C      3.83709   -4.62013    1.68907
C      4.68737   -2.73004    0.23125
C      3.44672   -3.47581    0.78676
N      6.12690   -1.67719    2.16276
N      2.66885   -3.96475   -0.35972
S      3.39925   -4.55220    3.37326
Br     5.23668   -6.29807   -0.25547
H      5.23795   -7.56490    2.55965
H      4.13352   -6.48099    4.71036
H      4.36077   -1.92698   -0.43883
H      5.29526   -3.42212   -0.35575
H      2.88803   -2.75413    1.40289
H      2.21442   -3.18283   -0.82930
H      1.93578   -4.59124   -0.03377
