18

C     -0.21458    0.08839    1.03099
C      0.23655    0.95253    3.21388
C      0.57706    0.88555    1.85846
C     -1.51108   -0.46074    2.83287
C     -2.70636   -1.23221    3.38399
C     -4.66304   -2.81118    3.04702
C     -3.49460   -2.07263    2.39763
N     -1.25975   -0.58540    1.52020
N     -0.80653    0.28017    3.70021
O     -2.98768   -1.15429    4.56606
Br     2.06716    1.84752    1.16813
H     -0.00560   -0.00818   -0.03243
H      0.81455    1.55653    3.91096
H     -4.31517   -3.48101    3.83819
H     -5.36878   -2.11046    3.50143
H     -5.19766   -3.40573    2.29987
H     -3.83204   -1.41381    1.58804
H     -2.79762   -2.76530    1.91037
