36   
Generated by ForceBalance from scan.xyz: Frame 1 of 11
C       -6.2939438868   -3.8132022859   -3.0497512565
C       -5.0964382860   -4.5064059151   -2.6894972018
C       -6.1021751533   -2.5093770511   -2.6745268745
C       -4.2655159403   -3.5740063230   -2.1215726871
C       -0.2353927624   -1.9959564021   -0.6943164620
C       -2.9117215428   -3.7339752760   -1.5767754351
C        1.5822652338   -3.3925439519   -1.5748862733
C        1.4673934327   -0.9689338716   -2.2908641830
C        1.6548871992   -2.7328788360    0.8250808243
C        1.4389159682   -0.3171902813    0.1221066349
C        3.3143860860   -1.7439451006   -0.7772216013
C        0.6381704648   -2.2162484480   -1.9369284858
C        0.6604273425   -1.5989451098    0.4958121732
C        2.5135802776   -3.0107396137   -0.4154218841
C        2.3480958556   -0.5843186669   -1.0900915864
N       -1.2031196872   -2.7539315291   -0.2881488412
O       -2.3308124215   -4.8048097885   -1.5336042124
O       -4.8766570812   -2.3436045346   -2.1092716238
O       -2.3924420154   -2.5588253873   -1.1426044765
H       -7.1779192589   -4.2220878603   -3.5207975969
H       -4.8615266196   -5.5535828079   -2.8214115504
H       -6.7148258138   -1.6208547151   -2.7378423045
H        0.9885174424   -4.2780441053   -1.3297431018
H        2.1650590083   -3.6189380066   -2.4769094545
H        2.0928412653   -1.1859000347   -3.1653726527
H        0.8040469593   -0.1406646130   -2.5650249023
H        2.2835522745   -2.4362522458    1.6744362676
H        1.0956785313   -3.6268338037    1.1206829807
H        0.7434910391    0.5016604098   -0.1012799533
H        2.0339616138   -0.0030353222    0.9884157716
H        3.9575871243   -1.9372783988   -1.6451553272
H        3.9739831392   -1.4711005980    0.0560844486
H        0.0134826574   -2.5097564023   -2.7871684432
H        0.0123083289   -1.4096461776    1.3539597653
H        3.2019055193   -3.8404092440   -0.2150421337
H        2.9193846449    0.3206768222   -1.3274957135
36   
Generated by ForceBalance from scan.xyz: Frame 2 of 11
C       -6.0708316450   -3.8650975048   -3.2322899366
C       -4.8787291161   -4.5025571791   -2.7668263396
C       -5.9785321429   -2.5567254490   -2.8356376432
C       -4.1506703547   -3.5357428201   -2.1205763262
C       -0.2681024734   -1.9342214544   -0.5004876425
C       -2.8467196838   -3.6357976705   -1.4534188577
C        1.3722354698   -3.4039781175   -1.5631955415
C        1.2791851925   -0.9729734871   -2.2608824430
C        1.7043514001   -2.7499679986    0.8236613176
C        1.5229445397   -0.3231012995    0.1478339930
C        3.2354627232   -1.8246622359   -0.9369164353
C        0.4422456704   -2.1909144643   -1.8263981587
C        0.7309859516   -1.5710104592    0.6007542695
C        2.4242904167   -3.0596043682   -0.4968427930
C        2.2898047601   -0.6266584309   -1.1528696848
N       -1.2887386789   -2.5729397180   -0.0424189024
O       -2.2198526990   -4.6782087793   -1.3655424444
O       -4.8195539457   -2.3364067855   -2.1597614174
O       -2.4248293782   -2.4402873686   -0.9748577541
H       -6.8869012359   -4.3124128338   -3.7840185606
H       -4.5815259717   -5.5359282461   -2.8809566737
H       -6.6258210153   -1.6985390628   -2.9510887396
H        0.7701301533   -4.2663406944   -1.2618927836
H        1.8580941306   -3.6518120640   -2.5154164794
H        1.8058396852   -1.2068773519   -3.1940570465
H        0.6234070033   -0.1185471311   -2.4648767315
H        2.4271030666   -2.4847692517    1.6057629045
H        1.1411229344   -3.6219684498    1.1726372716
H        0.8445708471    0.5258862599   -0.0031976579
H        2.2191893439   -0.0382314613    0.9460064050
H        3.7805451857   -2.0407344285   -1.8645656055
H        3.9853669113   -1.5807125173   -0.1739010615
H       -0.2853600361   -2.4524753839   -2.5999766251
H        0.1751166340   -1.3611116401    1.5172512037
H        3.0960233771   -3.9154506172   -0.3613617756
H        2.8703458546    0.2550148943   -1.4485060684
36   
Generated by ForceBalance from scan.xyz: Frame 3 of 11
C       -5.9266626314   -3.8957122993   -3.3056197292
C       -4.7769599756   -4.5057580543   -2.7138099639
C       -5.8470407337   -2.5628796875   -2.9976095205
C       -4.0841059471   -3.4998830507   -2.0888684161
C       -0.2707391666   -1.9037002502   -0.3905763096
C       -2.8303088308   -3.5608319007   -1.3270748485
C        1.2596298957   -3.3903506985   -1.5825217682
C        1.1696452572   -0.9430653927   -2.2220304158
C        1.7425263665   -2.7839196616    0.7944533190
C        1.5808638990   -0.3395131527    0.1767486000
C        3.1871740836   -1.8581240503   -1.0383353293
C        0.3377009543   -2.1560481506   -1.7595973678
C        0.7873026454   -1.5766282181    0.6553747288
C        2.3778878646   -3.0844588859   -0.5718717465
C        2.2560396215   -0.6373128488   -1.1754711679
N       -1.3542643385   -2.3972507897    0.0889075834
O       -2.2231567532   -4.5984140524   -1.1237451216
O       -4.7351238559   -2.3023505254   -2.2597317846
O       -2.4299306921   -2.3347257754   -0.9114832838
H       -6.7077548132   -4.3762460106   -3.8795966477
H       -4.4845945198   -5.5466014445   -2.7329588316
H       -6.4750044326   -1.7110141196   -3.2184990601
H        0.6617386908   -4.2488700322   -1.2613829215
H        1.6852768712   -3.6295223350   -2.5651419404
H        1.6292150978   -1.1663136382   -3.1925028167
H        0.5182658042   -0.0729001009   -2.3652135251
H        2.5158604854   -2.5518009543    1.5375283033
H        1.1808777799   -3.6506283851    1.1590925894
H        0.9155914648    0.5279111504    0.0850026117
H        2.3335943685   -0.0880290438    0.9337419131
H        3.6704547528   -2.0680001306   -2.0009704018
H        3.9869275442   -1.6432643026   -0.3183702984
H       -0.4456162051   -2.3819831230   -2.4868282900
H        0.2907666004   -1.3736479279    1.6073475303
H        3.0390492550   -3.9549773186   -0.4884172157
H        2.8358699149    0.2368601650   -1.4939128047
36   
Generated by ForceBalance from scan.xyz: Frame 4 of 11
C       -5.7898546974   -3.9863421263   -3.3525530406
C       -4.6704579555   -4.5414688233   -2.6575359376
C       -5.7345173620   -2.6341352386   -3.1377593131
C       -4.0182483243   -3.4868331861   -2.0703607627
C       -0.2729294408   -1.8675420038   -0.3299640320
C       -2.8074525279   -3.4823279742   -1.2393177435
C        1.1654228587   -3.3727781803   -1.6134281657
C        1.1167849041   -0.9058016056   -2.1785813593
C        1.7307647409   -2.8346245180    0.7668666023
C        1.6339382777   -0.3696897463    0.2172866539
C        3.1480116095   -1.9060850975   -1.0880372630
C        0.2686057366   -2.1123912227   -1.7222424247
C        0.8142214561   -1.5910358186    0.6918530479
C        2.3181992708   -3.1199476757   -0.6254893254
C        2.2490462828   -0.6563460438   -1.1657622834
N       -1.4129488348   -2.1981512614    0.1529026884
O       -2.2064453964   -4.4977580252   -0.9329609272
O       -4.6656664588   -2.3109720253   -2.3619992299
O       -2.4401669967   -2.2249247547   -0.8924244397
H       -6.5360915936   -4.5142535942   -3.9312561076
H       -4.3717928486   -5.5782059270   -2.5856617734
H       -6.3543345714   -1.8062642862   -3.4528252663
H        0.5575491900   -4.2259884928   -1.2964845231
H        1.5586186473   -3.5968343679   -2.6128897451
H        1.5332562044   -1.1128045670   -3.1718530813
H        0.4835782254   -0.0156372597   -2.2725881716
H        2.5325300425   -2.6490427844    1.4924938800
H        1.1520444651   -3.6930714814    1.1244362797
H        0.9955829872    0.5211090352    0.1718427641
H        2.4221027567   -0.1639156556    0.9516958621
H        3.5943714247   -2.1063339982   -2.0703332455
H        3.9760109931   -1.7310467711   -0.3894987835
H       -0.5474485399   -2.2917004362   -2.4241546775
H        0.3508412447   -1.3975235528    1.6625591121
H        2.9572055654   -4.0095137499   -0.5792884320
H        2.8427062996    0.2075452991   -1.4868288444
36   
Generated by ForceBalance from scan.xyz: Frame 5 of 11
C       -5.6960329594   -4.0559399404   -3.3509980910
C       -4.5895832049   -4.5506485784   -2.5925275857
C       -5.6685966083   -2.6929846741   -3.2118171263
C       -3.9732091120   -3.4529957248   -2.0467675649
C       -0.2761952408   -1.8391029947   -0.3071914660
C       -2.7889293961   -3.3815060817   -1.1810250340
C        1.1062942135   -3.3538024487   -1.6547454856
C        1.0904665877   -0.8714164091   -2.1485766688
C        1.7078792856   -2.8788050506    0.7338952821
C        1.6710858787   -0.3986018185    0.2460081166
C        3.1223476733   -1.9388746507   -1.1205967936
C        0.2283529303   -2.0777091262   -1.7107836312
C        0.8253765707   -1.6078879471    0.7047064714
C        2.2735478129   -3.1448290861   -0.6725580902
C        2.2494697567   -0.6689199507   -1.1556159018
N       -1.4575940219   -1.9827956749    0.1661235196
O       -2.1793221224   -4.3679130710   -0.8052469634
O       -4.6294903104   -2.3071912356   -2.4245249162
O       -2.4578726824   -2.0988675753   -0.8944443136
H       -6.4157772282   -4.6288051479   -3.9204272570
H       -4.2766600746   -5.5761767555   -2.4527492541
H       -6.2916514655   -1.8952753872   -3.5916438560
H        0.4903713869   -4.2065048942   -1.3522910745
H        1.4860138537   -3.5580927430   -2.6635413240
H        1.4798400779   -1.0589603628   -3.1566344005
H        0.4713472092    0.0318232707   -2.2039060665
H        2.5222932827   -2.7338237344    1.4544854192
H        1.1116914326   -3.7318125084    1.0756370108
H        1.0562279626    0.5094286435    0.2362667882
H        2.4795019456   -0.2339006209    0.9687539885
H        3.5488876508   -2.1269345837   -2.1140458375
H        3.9647357817   -1.7963416406   -0.4319282483
H       -0.6044316739   -2.2185288093   -2.4005236277
H        0.3788569176   -1.4255332301    1.6855406024
H        2.8951442477   -4.0475485373   -0.6515028888
H        2.8551354397    0.1882415412   -1.4723496145
36   
Generated by ForceBalance from scan.xyz: Frame 6 of 11
C       -5.9348106607   -3.8686678620   -3.3794718301
C       -5.6196715964   -3.7891536413   -1.9868959447
C       -4.7771440816   -3.5664572851   -4.0465357613
C       -4.2943663846   -3.4449963466   -1.9085702185
C       -0.1401339067   -2.3632219198   -0.3789447768
C       -3.4556688254   -3.2281780250   -0.7191965971
C        1.5407547695   -3.2207006640   -1.9757710460
C        0.8982610185   -0.7772601889   -1.9651213748
C        2.0667448751   -3.0926638652    0.4767716598
C        1.4244319810   -0.6502244237    0.4875596632
C        3.1609388003   -1.4921376116   -1.1275276894
C        0.3710015284   -2.2229070081   -1.7941586585
C        0.9037953580   -2.0937431629    0.6807720603
C        2.6451115390   -2.9325571093   -0.9415737803
C        2.0036541548   -0.4933993695   -0.9308149504
N       -1.3138234309   -2.6730018604    0.0326347954
O       -3.8727012597   -3.3389567478    0.4131897679
O       -3.7686308502   -3.3058196523   -3.1712677109
O       -2.1849264825   -2.8966566568   -1.0930654870
H       -6.8879178008   -4.1156589777   -3.8278600866
H       -6.2704091842   -3.9598115516   -1.1403910879
H       -4.5205858373   -3.4979817389   -5.0945441446
H        1.1745319687   -4.2483751194   -1.8681374814
H        1.9361547761   -3.1223017725   -2.9943180290
H        1.2888633001   -0.6600574584   -2.9835259721
H        0.0741190707   -0.0635879827   -1.8499246590
H        2.8414694436   -2.9021094130    1.2296298726
H        1.7085368939   -4.1172629609    0.6308515130
H        0.6088088091    0.0642229104    0.6493200178
H        2.1943248460   -0.4411181795    1.2404565800
H        3.5926043440   -1.3742116761   -2.1295430294
H        3.9620719206   -1.2846285083   -0.4070005507
H       -0.4235692943   -2.4287482091   -2.5111302304
H        0.4531087270   -2.2166229201    1.6689864959
H        3.4694205004   -3.6414490797   -1.0826747156
H        2.3722965063    0.5304312712   -1.0641954738
36   
Generated by ForceBalance from scan.xyz: Frame 7 of 11
C       -5.8191357330   -3.5899764933   -3.3442758604
C       -5.0976575574   -2.6212666435   -2.5792246633
C       -5.1235965969   -4.7639371890   -3.2186316401
C       -4.0185201043   -3.2778168014   -2.0434939913
C        0.0003330852   -2.8837381391   -0.3114861131
C       -2.9495280379   -2.7649374105   -1.1766779243
C        1.6617162495   -3.0444302125   -2.1578201316
C        0.4607071266   -0.8760821574   -1.6455149824
C        2.4048787438   -3.1893731739    0.2340207970
C        1.2233064615   -1.0125908048    0.7402560108
C        2.9126095018   -1.1258769005   -1.1189100260
C        0.3202371872   -2.4182571269   -1.7123471852
C        1.0762475646   -2.5525749444    0.7003176996
C        2.7735881686   -2.6603146355   -1.1646200919
C        1.5829763630   -0.4934429895   -0.6632914019
N       -1.0989261964   -3.3406356782    0.1609686371
O       -2.9037203760   -1.6101246512   -0.7890814263
O       -4.0267576863   -4.5947520682   -2.4333075028
O       -2.0298034574   -3.7214436714   -0.9008234947
H       -6.7296109187   -3.4407428695   -3.9092591511
H       -5.3301637705   -1.5760321267   -2.4289191438
H       -5.2740898683   -5.7614767764   -3.6073288104
H        1.5642907368   -4.1347356763   -2.2206959849
H        1.9070399709   -2.6829387356   -3.1638408917
H        0.6893310009   -0.5046821005   -2.6522118402
H       -0.4932363883   -0.4366137084   -1.3377068029
H        3.1920593822   -2.9422104249    0.9567158679
H        2.3134961361   -4.2820721318    0.2166310459
H        0.2865132662   -0.5633532933    1.0873300709
H        2.0059619592   -0.7452147168    1.4610296083
H        3.1901087088   -0.7458259691   -2.1102714508
H        3.7183545742   -0.8424556896   -0.4299684889
H       -0.4763096512   -2.6984082515   -2.4023784566
H        0.7786407112   -2.9374532877    1.6790586552
H        3.7207609061   -3.1086860906   -1.4866714302
H        1.6827699534    0.5978424572   -0.6347369528
36   
Generated by ForceBalance from scan.xyz: Frame 8 of 11
C       -5.8636473822   -3.6966031294   -3.3464496877
C       -5.1577728478   -2.6679361866   -2.6480304794
C       -5.1546611759   -4.8506586205   -3.1387850222
C       -4.0721216333   -3.2723417509   -2.0661893398
C       -0.0103502523   -2.8580015205   -0.3326558337
C       -3.0118831282   -2.6883424582   -1.2347077016
C        1.6654118841   -3.0005428386   -2.1879153219
C        0.5012812863   -0.8305484292   -1.6020794357
C        2.3871543412   -3.2331855105    0.2041720920
C        1.2654181608   -1.0413577079    0.7741656571
C        2.9498592816   -1.1420506240   -1.0870118768
C        0.3364674057   -2.3676707532   -1.7221789288
C        1.0756541826   -2.5739542879    0.6880805609
C        2.7780685303   -2.6713587923   -1.1760410809
C        1.6333290680   -0.4939133697   -0.6151433912
N       -1.1643676850   -3.1338995860    0.1514693649
O       -2.9849937345   -1.5104293449   -0.9217444703
O       -4.0628494839   -4.6132606318   -2.3640188286
O       -2.0749146854   -3.6067394819   -0.8950965613
H       -6.7737888054   -3.5980736740   -3.9229720745
H       -5.4039800037   -1.6178844604   -2.5707339336
H       -5.2915122696   -5.8743583322   -3.4583528535
H        1.5490896936   -4.0859936220   -2.2902100938
H        1.9240486510   -2.6083449296   -3.1789682312
H        0.7313625827   -0.4352795156   -2.5993584881
H       -0.4455747917   -0.3867933978   -1.2789404905
H        3.1774804924   -3.0314668788    0.9374001772
H        2.2675964185   -4.3222036507    0.1510844045
H        0.3412634956   -0.5796723552    1.1381526480
H        2.0573897772   -0.8158334403    1.4992294989
H        3.2377428834   -0.7412660721   -2.0671809275
H        3.7597057615   -0.8944923470   -0.3891371598
H       -0.4653482735   -2.6057684991   -2.4230399027
H        0.7694164469   -2.9767802460    1.6567919242
H        3.7176673638   -3.1311194224   -1.5040443799
H        1.7549310639    0.5942239925   -0.5606555542
36   
Generated by ForceBalance from scan.xyz: Frame 9 of 11
C       -5.9390960101   -3.8467950451   -3.3009251884
C       -5.2353325691   -2.7550386203   -2.7034208012
C       -5.2146024359   -4.9709627621   -3.0025981779
C       -4.1360926184   -3.2953794293   -2.0853051234
C       -0.0255573758   -2.8260645879   -0.3944026191
C       -3.0714522232   -2.6321500363   -1.3219341532
C        1.6964935821   -2.9431836978   -2.2309029731
C        0.5751252431   -0.7714001834   -1.5735128684
C        2.3568341766   -3.2838547850    0.1639575717
C        1.2993213035   -1.0792220632    0.7996102705
C        3.0079224182   -1.1638772120   -1.0379680488
C        0.3773745976   -2.2980449509   -1.7607672035
C        1.0593573778   -2.5989252668    0.6505198738
C        2.7956156480   -2.6835593702   -1.1851728979
C        1.7020103264   -0.4959954589   -0.5636762341
N       -1.2106564747   -2.9312520847    0.0873041771
O       -3.0513323580   -1.4316118757   -1.1100849042
O       -4.1159880888   -4.6570740849   -2.2655401901
O       -2.1198109405   -3.5067512337   -0.9147751775
H       -6.8570483134   -3.8076557754   -3.8721519104
H       -5.4916687814   -1.7046288741   -2.7146088571
H       -5.3440925188   -6.0198543947   -3.2303432056
H        1.5558008591   -4.0200241259   -2.3812494720
H        1.9849419745   -2.5163226898   -3.1991201750
H        0.8261342728   -0.3472245051   -2.5538162190
H       -0.3664265128   -0.3192256760   -1.2469108090
H        3.1379329202   -3.1387617913    0.9200794678
H        2.2027643671   -4.3654751684    0.0650243755
H        0.3854594326   -0.6023561729    1.1698151071
H        2.0888327813   -0.9070376731    1.5419769990
H        3.3236117843   -0.7370935855   -1.9984213668
H        3.8119040401   -0.9634990545   -0.3185356980
H       -0.4177181313   -2.4806355432   -2.4873865347
H        0.7287315412   -3.0261586514    1.6003407241
H        3.7291116737   -3.1583159028   -1.5091774444
H        1.8509172151    0.5863705560   -0.4730735116
36   
Generated by ForceBalance from scan.xyz: Frame 10 of 11
C       -6.0488731755   -3.9440604024   -3.2284787457
C       -5.3218774619   -2.8067717099   -2.7571132005
C       -5.3256728675   -5.0415156190   -2.8408628057
C       -4.2115268897   -3.2962155131   -2.1168257948
C       -0.0387865203   -2.7972238646   -0.5036000923
C       -3.1226905959   -2.5738412134   -1.4474848890
C        1.7764840250   -2.8630072280   -2.2692621037
C        0.6661371677   -0.7042602905   -1.5535803637
C        2.3141017580   -3.3263001516    0.1349057438
C        1.2828298833   -1.1275967311    0.8287662828
C        3.0663396431   -1.1700059019   -0.9368662111
C        0.4506406190   -2.2157456399   -1.8267902312
C        1.0127935590   -2.6309115293    0.5961035974
C        2.8298647931   -2.6763853653   -1.1626584063
C        1.7546199554   -0.4952883938   -0.4886409940
N       -1.2403045845   -2.7449442779   -0.0419631646
O       -3.0877336289   -1.3585551120   -1.3516537972
O       -4.2061182034   -4.6691684570   -2.1651626953
O       -2.1674733731   -3.4117587286   -0.9766494681
H       -6.9807276730   -3.9510179369   -3.7780792367
H       -5.5702418555   -1.7597906444   -2.8636675033
H       -5.4689058782   -6.1061068696   -2.9630590197
H        1.6240086576   -3.9278661098   -2.4802733692
H        2.1180662121   -2.3941935860   -3.2000790438
H        0.9651805356   -0.2431677325   -2.5034122421
H       -0.2809399370   -0.2506522850   -1.2465586576
H        3.0626138349   -3.2383492302    0.9317619973
H        2.1393252049   -4.3978617798   -0.0231635907
H        0.3650724388   -0.6466984591    1.1835331954
H        2.0447589202   -1.0093950414    1.6097111947
H        3.4327463171   -0.7077720785   -1.8622969072
H        3.8414420387   -1.0197592375   -0.1748272218
H       -0.3136919186   -2.3395802706   -2.5992616064
H        0.6339626557   -3.0930233881    1.5104092414
H        3.7676340712   -3.1575522898   -1.4640657719
H        1.9201401973    0.5791185874   -0.3461750784
36   
Generated by ForceBalance from scan.xyz: Frame 11 of 11
C       -6.2172884548   -4.1054660921   -3.0373672447
C       -5.5237402361   -2.9130988688   -2.6611118565
C       -5.3952488690   -5.1454935496   -2.6908109737
C       -4.3321231477   -3.3155098410   -2.1129769370
C       -0.0378504380   -2.7167318571   -0.7021504036
C       -3.2347341787   -2.5098982640   -1.5635847829
C        1.9494370183   -2.7737536898   -2.2982971619
C        0.8694210890   -0.6056968250   -1.5686371903
C        2.2402981192   -3.3724293732    0.1115506280
C        1.2522736422   -1.1618534011    0.8282659301
C        3.1845582824   -1.2075531162   -0.7734792986
C        0.6177549749   -2.0903103864   -1.9403042752
C        0.9359814589   -2.6342298501    0.4894006064
C        2.9051387344   -2.6887933118   -1.0961382327
C        1.8680955071   -0.4931523073   -0.4076562593
N       -1.2530721015   -2.5306125590   -0.2958212251
O       -3.2659598181   -1.2933519964   -1.4967270526
O       -4.2454709749   -4.6865846404   -2.1283621974
O       -2.1926106088   -3.2766665770   -1.1557953140
H       -7.1920016643   -4.1847118507   -3.5001141846
H       -5.8455775064   -1.8865794851   -2.7699307935
H       -5.4817962171   -6.2199099077   -2.7742503754
H        1.7732978662   -3.8184199975   -2.5791011163
H        2.3907536391   -2.2742173912   -3.1693454755
H        1.2688128206   -0.1185658587   -2.4674036046
H       -0.0802298638   -0.1223741392   -1.3208428897
H        2.9124564638   -3.3622829070    0.9783475547
H        2.0318164784   -4.4248752814   -0.1184618384
H        0.3283072317   -0.6550509465    1.1262585483
H        1.9448581608   -1.1203146100    1.6786663392
H        3.6528290046   -0.7199693966   -1.6380033413
H        3.8930626730   -1.1302120879    0.0607662839
H       -0.0706143737   -2.1328422839   -2.7910104746
H        0.4616502682   -3.1206298219    1.3442652586
H        3.8448893729   -3.1996403296   -1.3362862114
H        2.0653612360    0.5653096977   -0.2003621499
