24   

C       -4.2534865824   -1.0923285085    5.2354967359
C       -4.4072106665   -0.5769577892    3.9335685349
C       -2.0772037389   -1.5831364409    4.7813877455
C       -2.2078640438   -1.0693933757    3.4642389027
C       -1.1513787710   -0.5771747403    1.2116694518
C       -0.0365808365   -0.5511808993    0.4173173485
C       -1.0318912658   -1.0975458541    2.5615122465
C       -0.9538949261    0.9615108755   -1.2966362342
C        1.3946553760    0.0113500808   -1.4857978974
N       -3.0894707075   -1.6007625359    5.6753550838
N       -3.4001027092   -0.5586915326    3.0426387321
N        0.1311845658    0.1350126058   -0.7389896955
O        0.0352575542   -1.5613237321    2.9578161059
H       -5.1062368093   -1.0767190540    5.9038374386
H       -5.3716286438   -0.1805680009    3.6384554331
H       -1.1226702027   -1.9852389491    5.1009307330
H       -2.0825222791   -0.1364654258    0.8856938227
H        0.8383900284   -1.0822088314    0.7849704894
H       -1.3010483241    1.6871232324   -0.5541549885
H       -1.7912519662    0.3274426808   -1.6055176588
H       -0.6035282928    1.5170446537   -2.1722551421
H        1.2649111586   -0.6738840446   -2.3298094023
H        2.1931996633   -0.3740854786   -0.8437877175
H        1.7117626094    0.9887514513   -1.8626121612
24   

C       -4.2321306212   -1.0184014847    5.2397912783
C       -4.4227833456   -0.6467574088    3.8945269528
C       -2.0484020810   -1.4872748911    4.7980482126
C       -2.2158691804   -1.1168179233    3.4377707561
C       -1.2022955628   -0.8069492570    1.1327491529
C       -0.0831200804   -0.7225167118    0.3445910135
C       -1.0511098473   -1.1927808280    2.5234116666
C       -0.9490054689    0.9947632664   -1.1926186412
C        1.3969194312    0.0508675601   -1.4444756492
N       -3.0456723618   -1.4429192827    5.7078434015
N       -3.4306696270   -0.6903548676    2.9878307540
N        0.1175053245    0.0964684538   -0.7163210281
O        0.0386582765   -1.5742498310    2.9448381318
H       -5.0741993264   -0.9582425056    5.9190583035
H       -5.4038796986   -0.3125551839    3.5781487840
H       -1.0758801098   -1.8224403013    5.1397949170
H       -2.1488443741   -0.4115996726    0.7929373636
H        0.7925923748   -1.2637230532    0.6955714700
H       -1.3280940813    1.6081127044   -0.3689513739
H       -1.7709777836    0.4115790718   -1.6201915488
H       -0.5674757855    1.6691426790   -1.9657356042
H        1.2836688596   -0.5341245346   -2.3630240516
H        2.1796442231   -0.4090687255   -0.8327741628
H        1.7255012449    1.0625943554   -1.7018607738
24   

C       -4.1910169270   -0.9196953499    5.2363422507
C       -4.4144875287   -0.6940153920    3.8640377932
C       -1.9946490264   -1.3391589994    4.8070351735
C       -2.1950694371   -1.1149880285    3.4196197717
C       -1.2221540780   -0.9951239950    1.0789230888
C       -0.1104440819   -0.8616522626    0.2803462004
C       -1.0389014641   -1.2300990674    2.4984524936
C       -0.9410768971    1.0288672032   -1.0562648333
C        1.3948266996    0.0869947529   -1.4009067052
N       -2.9815013343   -1.2450868641    5.7244561556
N       -3.4328839801   -0.7875216202    2.9497747788
N        0.1101841978    0.0671360986   -0.6809429263
O        0.0735508710   -1.5155440735    2.9360017497
H       -5.0262730858   -0.8260886861    5.9202237775
H       -5.4128723708   -0.4341716801    3.5322718570
H       -1.0041239302   -1.5966845869    5.1640360039
H       -2.1866164122   -0.6548085779    0.7295935910
H        0.7678852618   -1.4147012287    0.6056383260
H       -1.3372747832    1.5289732762   -0.1667140270
H       -1.7552453975    0.5141549989   -1.5765415980
H       -0.5383959733    1.7985802707   -1.7221756648
H        1.2829671836   -0.3940983696   -2.3780581781
H        2.1680902275   -0.4446663649   -0.8372171615
H        1.7354045121    1.1169994589   -1.5453457577
24   

C       -4.1565172653   -0.8107502685    5.2137468595
C       -4.4050935791   -0.7370209516    3.8292909663
C       -1.9466883994   -1.1666163205    4.7953983616
C       -2.1723505301   -1.0950276015    3.3957703233
C       -1.2278250986   -1.1769450052    1.0417766891
C       -0.1363085179   -1.0005074660    0.2132370898
C       -1.0210837146   -1.2459163426    2.4735240764
C       -0.9492253666    1.0298549893   -0.9038771400
C        1.3673009687    0.0944771904   -1.3771479556
N       -2.9274535132   -1.0268309387    5.7136070439
N       -3.4297173773   -0.8768528674    2.9143486812
N        0.0891567358    0.0159717419   -0.6496483034
O        0.1106332647   -1.4231202291    2.9183075871
H       -4.9881928443   -0.6875023426    5.8972957997
H       -5.4182351876   -0.5593630183    3.4881606986
H       -0.9410062903   -1.3390960387    5.1611107666
H       -2.2125005359   -0.9076099044    0.6865581891
H        0.7473755793   -1.5660502328    0.5001517089
H       -1.3437893323    1.4193152298    0.0400976084
H       -1.7671956583    0.5945087802   -1.4867934090
H       -0.5342390715    1.8725377806   -1.4657690508
H        1.2361293861   -0.2660323430   -2.4026232556
H        2.1343434839   -0.5154581797   -0.8893478718
H        1.7283595010    1.1272870179   -1.4035317700
24   

C       -4.1297901533   -0.7227601272    5.1689835977
C       -4.3949975641   -0.8061026580    3.7882352091
C       -1.9052629120   -0.9787909384    4.7545426185
C       -2.1476230665   -1.0648386104    3.3586285803
C       -1.2183900738   -1.3388691455    1.0146078211
C       -0.1552188538   -1.1293624677    0.1424300428
C       -0.9971777362   -1.2357045441    2.4386459039
C       -0.9374287724    1.0226746668   -0.7295731298
C        1.3308246511    0.0748106401   -1.3800926689
N       -2.8848432986   -0.8085791402    5.6689699986
N       -3.4208425281   -0.9767202184    2.8773252464
N        0.0728800027   -0.0445770503   -0.6234618472
O        0.1485306579   -1.2881103612    2.8791933519
H       -4.9616153978   -0.5834423818    5.8492572582
H       -5.4203951917   -0.7279337760    3.4463766482
H       -0.8873095572   -1.0498053142    5.1200530380
H       -2.2231962089   -1.1606151897    0.6580859261
H        0.7282629617   -1.7216795086    0.3685995930
H       -1.2950410019    1.3128654227    0.2636176877
H       -1.7840466370    0.6826136212   -1.3344461145
H       -0.5084660426    1.9118264431   -1.2022933387
H        1.1547137948   -0.1552776904   -2.4359303741
H        2.0876416796   -0.6163617109   -0.9956331016
H        1.7313549912    1.0898335793   -1.2960145227
24   

C       -4.1395052910   -0.9098354812    5.3196752738
C       -4.4542213682   -1.3095137350    4.0062840918
C       -2.1238814562   -0.1347671083    4.5978000762
C       -2.4161992837   -0.5334040586    3.2668630645
C       -1.6524061687   -0.7380593230    0.8556710597
C       -0.5977991070   -0.9828354996   -0.0419927085
C       -1.3905066287   -0.3283084912    2.2149040421
C       -0.2485673289    1.3597665015   -0.6109752778
C        0.9706257267   -0.4926869106   -1.8446787932
N       -2.9749585868   -0.3150308356    5.6310851379
N       -3.6098840026   -1.1256948285    2.9760117463
N       -0.0331895475   -0.0787168568   -0.8505829540
O       -0.2998973896    0.1556793430    2.5055157993
H       -4.8638021894   -1.0914806912    6.1048559368
H       -5.4090268497   -1.7866518602    3.8190606304
H       -1.1700911412    0.3330505772    4.8130353720
H       -2.5796717013   -1.2676207458    0.6869931766
H       -0.4874054616   -2.0190437577   -0.3480379394
H       -1.3169207475    1.5780481987   -0.5153263108
H        0.1383323803    1.9494735982   -1.4478197690
H        0.2669436209    1.6728723864    0.3027223445
H        0.7436465340   -0.0477624100   -2.8185396415
H        0.9815254453   -1.5806862485   -1.9642074358
H        1.9677123931   -0.1719633903   -1.5257712740
24   

C       -4.0863890685   -0.8308553185    5.3035150446
C       -4.4016690392   -1.3390951498    4.0283425169
C       -2.1120460875   -0.0356857587    4.4952340730
C       -2.4053768587   -0.5424654204    3.2014549573
C       -1.6704110245   -0.8971669345    0.8017764989
C       -0.6427459250   -1.0746836508   -0.1276012808
C       -1.4059907922   -0.3667819504    2.1185802547
C       -0.2830107049    1.3211274154   -0.5257095106
C        0.9838825999   -0.4431901799   -1.8308164871
N       -2.9418905541   -0.1714180178    5.5522652969
N       -3.5779937825   -1.2012800552    2.9743720044
N       -0.0356841461   -0.1021281923   -0.8251401556
O       -0.3404360889    0.1935398276    2.3611015720
H       -4.7935271771   -0.9797077841    6.1109191080
H       -5.3401775990   -1.8633349319    3.8915552783
H       -1.1754153283    0.4839892194    4.6612742684
H       -2.5508085272   -1.5165085268    0.7008858190
H       -0.5773038386   -2.0691777321   -0.5591450516
H       -1.3431273080    1.4969594154   -0.3178396923
H       -0.0086677860    1.9437450627   -1.3828493055
H        0.3118799939    1.6376836044    0.3367068847
H        0.8045655467    0.1125038042   -2.7565109102
H        0.9610474077   -1.5112872887   -2.0690275438
H        1.9804196369   -0.1962227202   -1.4504123776
24   

C       -4.0703856098   -0.7897550090    5.2711227068
C       -4.3644160213   -1.3798531569    4.0265456529
C       -2.1193422069    0.0206857136    4.4225996429
C       -2.3916741088   -0.5674420799    3.1587218333
C       -1.6434146842   -1.0349694144    0.7869596276
C       -0.6717114441   -1.1362251631   -0.2011565663
C       -1.3992329374   -0.4120430837    2.0656800810
C       -0.3063985444    1.2885270195   -0.4852148494
C        0.9922381129   -0.4174767825   -1.8290491896
N       -2.9481043570   -0.0816113439    5.4842481363
N       -3.5414212200   -1.2765574635    2.9681211778
N       -0.0237050764   -0.1245103156   -0.8044243313
O       -0.3601640826    0.2054860262    2.2814049981
H       -4.7760203423   -0.9137957719    6.0840154129
H       -5.2859398428   -1.9395721101    3.9177758044
H       -1.2012051597    0.5799613712    4.5609070368
H       -2.4818573783   -1.7153178040    0.7310846347
H       -0.6436281957   -2.0894046693   -0.7209866343
H       -1.3510378844    1.4228880011   -0.1879889711
H       -0.1335796883    1.9183315330   -1.3632358456
H        0.3462110795    1.6343162488    0.3224535291
H        0.8390810165    0.2146041897   -2.7093540416
H        0.9374262426   -1.4618584329   -2.1521107009
H        1.9928735316   -0.2333098156   -1.4246661257
24   

C       -4.0643885801   -0.7849829639    5.2646534696
C       -4.3173483930   -1.4485456674    4.0484275910
C       -2.1369538283    0.0621134730    4.3981844972
C       -2.3688228499   -0.5980747543    3.1619400104
C       -1.5839466990   -1.1410987087    0.8205544347
C       -0.6917623998   -1.1569314940   -0.2359213362
C       -1.3770794820   -0.4434855110    2.0676102065
C       -0.3212537111    1.2827330705   -0.4374753533
C        0.9796611499   -0.3796690735   -1.8267963916
N       -2.9744203746   -0.0219834871    5.4546132371
N       -3.4852383862   -1.3644744370    2.9954761530
N       -0.0133507653   -0.1221979762   -0.7701481082
O       -0.3744174235    0.2367585941    2.2640299789
H       -4.7759437362   -0.8959909781    6.0742610338
H       -5.2144286467   -2.0495998880    3.9573228594
H       -1.2457255705    0.6672773433    4.5180322236
H       -2.3751073414   -1.8778104784    0.8005267782
H       -0.6996476610   -2.0718372063   -0.8211708433
H       -1.3525600753    1.3873927691   -0.0868134068
H       -0.2127971073    1.9162985405   -1.3229862210
H        0.3619471915    1.6491580821    0.3351107454
H        0.8488982296    0.3238404503   -2.6550314404
H        0.8747761178   -1.3921303573   -2.2293341433
H        1.9908764519   -0.2710596616   -1.4215109788
24   

C       -4.0803566742   -0.7796115861    5.2844748682
C       -4.2724935520   -1.5101067970    4.0958524799
C       -2.1776774529    0.1225981737    4.4189111003
C       -2.3492544011   -0.6030278641    3.2096373895
C       -1.4985354885   -1.1997773682    0.9056888591
C       -0.6867210470   -1.1501980025   -0.2079793935
C       -1.3497780076   -0.4371435998    2.1234417667
C       -0.2497336526    1.2842115423   -0.3635484806
C        0.9918296840   -0.3811867498   -1.7937829189
N       -3.0333029523    0.0441859896    5.4611553061
N       -3.4217362224   -1.4327339964    3.0574218928
N        0.0381600647   -0.1236503713   -0.7009454782
O       -0.3944272529    0.3105050119    2.3072300338
H       -4.8046913776   -0.8878441969    6.0830490762
H       -5.1373491259   -2.1579214595    4.0141218076
H       -1.3216696426    0.7784879034    4.5280464755
H       -2.2439860579   -1.9829697394    0.9121912212
H       -0.7388806956   -2.0377588817   -0.8318714985
H       -1.2720296871    1.3979763989    0.0099301163
H       -0.1559315737    1.9163245635   -1.2517513754
H        0.4548538467    1.6456564747    0.3920692184
H        0.8280621342    0.3193385608   -2.6187522138
H        0.8769309097   -1.3953311250   -2.1893551433
H        2.0171511176   -0.2688959147   -1.4269523170
24   

C       -4.1095596213   -0.8449939245    5.2761571751
C       -4.2333896055   -1.6261373408    4.1109551326
C       -2.2482657721    0.1418642256    4.4130660606
C       -2.3522306652   -0.6326165213    3.2263932201
C       -1.4375818495   -1.2360624583    0.9483084519
C       -0.7074214669   -1.1301505869   -0.2149245612
C       -1.3507522965   -0.4327926589    2.1469945195
C       -0.1226653594    1.2774684198   -0.3200819227
C        0.9586015977   -0.4134262858   -1.8363406063
N       -3.1175707982    0.0462553257    5.4424780571
N       -3.3686628177   -1.5321334805    3.0855170678
N        0.0783114649   -0.1372382502   -0.6875251050
O       -0.4527365423    0.3838370479    2.3215891813
H       -4.8424196425   -0.9690854800    6.0645820223
H       -5.0560879256   -2.3275279545    4.0365481669
H       -1.4375537307    0.8542368687    4.5135600667
H       -2.1425702393   -2.0555797598    0.9707089358
H       -0.8187711720   -1.9918035735   -0.8668599771
H       -1.1366345047    1.4446562048    0.0561364322
H        0.0088300607    1.9215902093   -1.1948325608
H        0.6049216328    1.5799129689    0.4396799423
H        0.7075102303    0.2418028923   -2.6765663942
H        0.8568976072   -1.4493622756   -2.1750783347
H        2.0031770022   -0.2498429159   -1.5527740688
24   

C       -4.1611188823   -1.0384143635    5.2441375069
C       -4.0862943270   -1.9025121627    4.1350925303
C       -2.6517525596    0.3524666778    4.2581056983
C       -2.5567551318   -0.5028449829    3.1272619723
C       -1.5270759145   -0.9974824839    0.8717003549
C       -0.7970772749   -0.9363281863   -0.3019619378
C       -1.6409912070   -0.1278209898    2.0157443199
C        0.3771969120    1.2555289951   -0.2985083178
C        0.6943086648   -0.4091398352   -2.1546134108
N       -3.4475949948    0.0978974071    5.3195774529
N       -3.2958658870   -1.6493280023    3.0774291393
N        0.0823792326   -0.0751386148   -0.8552301653
O       -0.9877372771    0.9032112077    2.1186673426
H       -4.8183912990   -1.3025644207    6.0640832994
H       -4.6863944971   -2.8048835418    4.1331143945
H       -2.0612705388    1.2608117208    4.2886895446
H       -2.1367271601   -1.8886463403    0.9241414637
H       -0.9811506010   -1.8191684670   -0.9074421915
H        0.9058826803    1.8693978514   -1.0338671034
H        1.0159553640    1.1666204368    0.5855126071
H       -0.5468032067    1.7858885953   -0.0541112713
H        0.5012349212    0.3888108928   -2.8789071864
H        0.2836802527   -1.3370237023   -2.5651102862
H        1.7754270925   -0.5353700102   -2.0388370283
24   

C       -4.0071925275   -0.9154339255    5.3367598522
C       -3.7829016357   -1.9202720943    4.3759255477
C       -2.9579244129    0.5962799308    3.9962463010
C       -2.7171072911   -0.3997292191    3.0119642674
C       -1.7574556139   -1.0296602556    0.7596176500
C       -1.0039566311   -0.9402337189   -0.3901528568
C       -1.9841780122   -0.0257730684    1.7746067114
C        0.7453562885    0.7198092910    0.1865140125
C        0.3726949091   -0.0397985868   -2.1824409068
N       -3.5994555781    0.3528046646    5.1597222316
N       -3.1444241317   -1.6793233122    3.2173017914
N       -0.0712110578   -0.0422867246   -0.7774563231
O       -1.6252788162    1.1381876124    1.6326191252
H       -4.5268939063   -1.1778127962    6.2506333287
H       -4.1359953296   -2.9247623845    4.5775243974
H       -2.6128018493    1.6090760212    3.8231478849
H       -2.2746427511   -1.9698635495    0.8924401643
H       -1.1832055411   -1.7591587553   -1.0808740906
H        1.7824671773    0.7822723618   -0.1568038234
H        0.7567565488    0.2293245161    1.1647416578
H        0.3579632449    1.7381554242    0.2913455412
H        0.1518613438    0.9293777101   -2.6409557856
H       -0.1388166494   -0.8145626261   -2.7623878006
H        1.4491273215   -0.2292624845   -2.2436665249
24   

C       -3.9778112273   -0.9011338277    5.3083370348
C       -3.6835405853   -1.9396015832    4.4036892737
C       -2.9951646909    0.5969879942    3.9036002801
C       -2.6862147155   -0.4327322066    2.9748611102
C       -1.6850483990   -1.1161754510    0.7567956178
C       -1.0075441760   -0.9746170104   -0.4359365312
C       -1.9688567400   -0.0803336883    1.7229003558
C        0.8101659624    0.5708106957    0.2341430464
C        0.3965139095   -0.0232578990   -2.1818587743
N       -3.6384137325    0.3773708189    5.0708563663
N       -3.0431078334   -1.7224342623    3.2414329467
N       -0.0246743276   -0.1127598080   -0.7730684033
O       -1.6759867646    1.0935563866    1.5188080411
H       -4.4963417087   -1.1452198438    6.2279263611
H       -3.9832797177   -2.9507511639    4.6527839452
H       -2.7067202088    1.6177226152    3.6805382301
H       -2.1602907098   -2.0737159474    0.9192770166
H       -1.2272216362   -1.7516353019   -1.1623714418
H        1.8552122659    0.5949298353   -0.0892240542
H        0.7786914416    0.0449517030    1.1933122024
H        0.4693640574    1.6014929438    0.3740893824
H        0.0951337182    0.9427328575   -2.5995834389
H       -0.0600625248   -0.8157927611   -2.7831832499
H        1.4831669392   -0.1256471947   -2.2644920875
24   

C       -3.9594291803   -0.8557568399    5.3282664934
C       -3.5979432111   -1.9146437201    4.4729258431
C       -3.0232056167    0.6301635732    3.8795387451
C       -2.6487687166   -0.4201075414    2.9993906183
C       -1.5889240426   -1.1393006235    0.8193245903
C       -1.0172925371   -0.9482983975   -0.4253713325
C       -1.9398225760   -0.0829904797    1.7389328737
C        0.8515543052    0.5268159968    0.2534598350
C        0.3847303226    0.0027480527   -2.1741569760
N       -3.6764702853    0.4270172217    5.0441971653
N       -2.9462522319   -1.7139434439    3.3139527992
N        0.0032157822   -0.1335389960   -0.7582619303
O       -1.7102471273    1.0949884830    1.4814316894
H       -4.4846792830   -1.0870918966    6.2473392935
H       -3.8547391353   -2.9281218430    4.7579434542
H       -2.7818828305    1.6539091726    3.6176518646
H       -2.0061881226   -2.1166688197    1.0186321452
H       -1.2946435469   -1.6895437225   -1.1691878173
H        1.8915569657    0.5605692760   -0.0850008930
H        0.8350791692   -0.0220302752    1.2000371341
H        0.5106343441    1.5526639341    0.4247171301
H        0.0570695987    0.9751396023   -2.5558589941
H       -0.0745037693   -0.7813851669   -2.7843671269
H        1.4702787988   -0.0787639584   -2.2879249742
24   

C       -3.9707279456   -0.8505267296    5.3386804843
C       -3.5332878735   -1.9131927506    4.5244188386
C       -3.0766865011    0.6402189949    3.8683745995
C       -2.6277317527   -0.4138405371    3.0288400833
C       -1.4873712244   -1.1348547852    0.8876276936
C       -1.0306995169   -0.9030799689   -0.4034627538
C       -1.9192635627   -0.0760583985    1.7687748210
C        0.8846510219    0.5201997941    0.2307988034
C        0.3629804494   -0.0056150939   -2.1889489688
N       -3.7467236426    0.4366505224    5.0233767470
N       -2.8637926084   -1.7119296026    3.3757202005
N        0.0270637522   -0.1544699043   -0.7631780163
O       -1.7523497050    1.1034336447    1.4713021135
H       -4.5075135544   -1.0825595474    6.2508883496
H       -3.7455181940   -2.9301146769    4.8328872318
H       -2.8838187253    1.6671277318    3.5800128714
H       -1.8350300638   -2.1317757172    1.1205755138
H       -1.3837082261   -1.6089841579   -1.1495504191
H        1.9095864277    0.6009966389   -0.1439061099
H        0.9231407772   -0.0467803716    1.1660585547
H        0.5104560784    1.5282604923    0.4347327508
H        0.0770961666    0.9924195541   -2.5366781609
H       -0.1629536945   -0.7477324477   -2.7978413545
H        1.4373625209   -0.1452854064   -2.3442427425
24   

C       -4.0151153613   -0.8742195369    5.3464161748
C       -3.4929305563   -1.9224814351    4.5639854493
C       -3.1631432387    0.6425981227    3.8776543358
C       -2.6304661947   -0.3968502113    3.0698894839
C       -1.3889933995   -1.0804451659    0.9687662336
C       -1.0378564453   -0.8233023927   -0.3585044527
C       -1.9153736038   -0.0392283091    1.8196601056
C        0.9334998095    0.5336409690    0.1897306851
C        0.3413141264   -0.0337105640   -2.2078881824
N       -3.8547499325    0.4187648481    5.0160763875
N       -2.8010506861   -1.7007334276    3.4324579113
N        0.0577879911   -0.1661547357   -0.7693851303
O       -1.8121160349    1.1408131016    1.4955970835
H       -4.5664180900   -1.1227082992    6.2455388454
H       -3.6571464405   -2.9451118189    4.8827377115
H       -3.0214618574    1.6739946865    3.5759117147
H       -1.6554854756   -2.0952207437    1.2296671035
H       -1.4867324661   -1.4868783321   -1.0917909498
H        1.9241454342    0.6945025649   -0.2465623179
H        1.0676191223   -0.0599192880    1.0994968379
H        0.5087206185    1.5074369214    0.4526844343
H        0.1338187228    0.9899340682   -2.5363460977
H       -0.2790569203   -0.7167965100   -2.7966420445
H        1.3902345667   -0.2708747134   -2.4113044631
24   

C       -4.0763914015   -0.9511302931    5.3573642914
C       -3.4490089315   -1.9579447323    4.5980891447
C       -3.3017107466    0.6225645087    3.9054893115
C       -2.6649019856   -0.3748668846    3.1210419471
C       -1.3085930983   -0.9621513571    1.0583168571
C       -1.0323479562   -0.7064833314   -0.2967186934
C       -1.9521130029    0.0311661123    1.8850022836
C        1.0141662223    0.5436756498    0.1305665285
C        0.3155678297   -0.0752017766   -2.2292659277
N       -4.0076666365    0.3493345884    5.0241848765
N       -2.7415353821   -1.6864665741    3.4872638724
N        0.0921035585   -0.1630569018   -0.7768243905
O       -1.9406121512    1.2099652760    1.5408652162
H       -4.6349655603   -1.2391249804    6.2400666010
H       -3.5431207878   -2.9893095133    4.9171455890
H       -3.2329925141    1.6603096656    3.6001075733
H       -1.4570455268   -1.9930954783    1.3478428961
H       -1.6013715607   -1.3056361311   -1.0015631219
H        1.9520418555    0.7776169323   -0.3826733627
H        1.2551489742   -0.0805801854    0.9968258813
H        0.5631921995    1.4800229857    0.4748141726
H        0.2029863081    0.9613757151   -2.5633039403
H       -0.4036632265   -0.6925724118   -2.7767225432
H        1.3216821288   -0.4265641330   -2.4785804173
24   

C       -3.8459198254   -0.9261329860    5.3569009678
C       -2.9460115669   -1.7533647055    4.6571812838
C       -4.0507548382    0.4018242464    3.5183213023
C       -3.1456956807   -0.4164592662    2.7930509756
C       -1.8982447211   -0.8740691575    0.6325614903
C       -1.3021433039   -0.3520241987   -0.5107160412
C       -2.8067528553   -0.0504125972    1.3965498142
C        0.9574736420   -0.1695881607    0.4190362978
C        0.4000383535    0.7270153795   -1.8943878355
N       -4.4092008923    0.1589669445    4.7978758841
N       -2.5894973301   -1.5132237446    3.3831764411
N       -0.0270937566    0.0595036147   -0.6529545642
O       -3.2926194609    0.9538368578    0.8818678303
H       -4.0896155117   -1.1760828963    6.3826953338
H       -2.5234939926   -2.6133765100    5.1634166264
H       -4.4829292484    1.2701860472    3.0345407177
H       -1.3955311716   -1.6726458532    1.1598880958
H       -2.0036499081    0.0842469658   -1.2178855568
H        1.2272471355   -1.2295298609    0.4639739816
H        0.5510776233    0.1422461620    1.3865728674
H        1.8664517614    0.4121399870    0.2362354165
H        1.0314317787    1.5909676423   -1.6648352801
H       -0.4628795895    1.0854269132   -2.4646638560
H        0.9632599283    0.0269030791   -2.5199856914
24   

C       -3.9506863681   -0.9757584394    5.3483397424
C       -2.9333186731   -1.7094529861    4.7076210860
C       -4.2201538222    0.2848907443    3.4712460110
C       -3.1971490618   -0.4395181301    2.8051947687
C       -1.7983620649   -0.7910668878    0.7179543541
C       -1.2554028616   -0.2463725925   -0.4298881545
C       -2.8383411926   -0.0645586309    1.4161157633
C        1.0814750042   -0.2560595397    0.3249874718
C        0.4147098970    0.7616253642   -1.9076750414
N       -4.6063512628    0.0277596130    4.7398496210
N       -2.5487427628   -1.4549813119    3.4445794713
N        0.0357580774    0.0866061450   -0.6547459977
O       -3.4150063892    0.8647912379    0.8559288553
H       -4.2107122194   -1.2317891411    6.3686091223
H       -2.4407682052   -2.5066934201    5.2518620997
H       -4.7243236075    1.0898684980    2.9490395209
H       -1.2344976761   -1.5260530695    1.2748669244
H       -1.9758924153    0.2299001411   -1.0910412393
H        1.2637882324   -1.3354754081    0.3204830637
H        0.7821043632    0.0570208120    1.3303735565
H        2.0186337714    0.2541743078    0.0811790069
H        1.1364088390    1.5597070661   -1.7077421478
H       -0.4583261946    1.2133463451   -2.3894247869
H        0.8601643450    0.0403655577   -2.6005852550
24   

C       -4.0268247390   -1.0458074969    5.3525695079
C       -2.9123820590   -1.6761806644    4.7654184826
C       -4.3376434989    0.1690520135    3.4521069375
C       -3.2172469301   -0.4515694618    2.8398303146
C       -1.6902465153   -0.6684362830    0.8245126522
C       -1.2055934150   -0.1196954082   -0.3397044608
C       -2.8377482657   -0.0525357718    1.4631490945
C        1.1808649205   -0.3082653712    0.2266669607
C        0.4148153620    0.7711611659   -1.9436188007
N       -4.7525958185   -0.1178922027    4.7050461837
N       -2.4984277074   -1.3914574256    3.5181207090
N        0.0877957243    0.1209706189   -0.6632451466
O       -3.4875789287    0.8033048739    0.8667182200
H       -4.3057530798   -1.3207586886    6.3628713106
H       -2.3673867456   -2.4164253134    5.3393320457
H       -4.8968300519    0.9154626885    2.8997554675
H       -1.0792690383   -1.3488993515    1.4004517092
H       -1.9440435567    0.3754478104   -0.9663355005
H        1.2618044629   -1.4000223586    0.2256415495
H        1.0021682237    0.0417937700    1.2483824336
H        2.1358687557    0.1086511844   -0.1082954908
H        1.2184166130    1.5013566179   -1.8064896033
H       -0.4537048335    1.3018868067   -2.3465481458
H        0.7336105187    0.0198636387   -2.6734879797
24   

C       -4.1019887946   -1.1252863655    5.3346206368
C       -2.9029175419   -1.6437034236    4.8076957340
C       -4.4357138705    0.0490710847    3.4128308785
C       -3.2305410551   -0.4593689011    2.8608585136
C       -1.5919901629   -0.5338276721    0.9257402065
C       -1.1515387412   -0.0024913018   -0.2593363654
C       -2.8262820690   -0.0314188366    1.4999832321
C        1.2482087900   -0.3905030438    0.1313055656
C        0.4143558116    0.7300142150   -1.9916628564
N       -4.8823010040   -0.2746896314    4.6457170841
N       -2.4571686166   -1.3219934148    3.5804767676
N        0.1306334915    0.1237472106   -0.6797407314
O       -3.5314387363    0.7501996365    0.8654954900
H       -4.4028666993   -1.4247317507    6.3315708091
H       -2.3173481456   -2.3258090313    5.4128225294
H       -5.0379491516    0.7350118992    2.8282645012
H       -0.9497875462   -1.1672387515    1.5208061441
H       -1.8987065358    0.5062574169   -0.8642133802
H        1.2195933092   -1.4844517791    0.1631632170
H        1.1939829201    0.0046755471    1.1507290536
H        2.2076468492   -0.0840551173   -0.2972198008
H        1.2818835577    1.3939457847   -1.9253853766
H       -0.4357824106    1.3250603760   -2.3403241842
H        0.6174782367   -0.0531354153   -2.7293553546
24   

C       -4.2876172472   -1.1537654593    5.2364046115
C       -4.3654766865   -0.4344052013    4.0278026977
C       -2.1669711092   -1.7966563620    4.7140637998
C       -2.2217158286   -1.0788082684    3.4903044719
C       -1.0817599591   -0.3640804278    1.3403986046
C       -0.0069655727   -0.4473399251    0.4962869455
C       -1.0405879459   -1.0945406155    2.5940329725
C       -1.1367627498    0.4857723426   -1.4835231613
C        1.3048950647   -0.2126310903   -1.5555534661
N       -3.1902213479   -1.8425765527    5.5944142703
N       -3.3474446219   -0.3880121925    3.1504090093
N        0.0416192895   -0.0866183743   -0.8087986407
O       -0.0342096276   -1.7227778991    2.9156953862
H       -5.1450286297   -1.1496500466    5.8989252060
H       -5.2785081356    0.1012056252    3.7958259516
H       -1.2648784172   -2.3407831874    4.9691809365
H       -1.9844444688    0.1534171766    1.0490733766
H        0.8897721117   -0.9187720523    0.8916978989
H       -1.3798935697    1.4633606098   -1.0547752289
H       -1.9979425435   -0.1819399182   -1.3794255988
H       -0.9413884532    0.6193369380   -2.5522011531
H        1.1161541628   -0.6026739152   -2.5605951069
H        1.9899830864   -0.9028360353   -1.0528741375
H        1.7914920668    0.7649008014   -1.6354553071
24   

C       -4.2752461946   -1.1565189397    5.2388800173
C       -4.3921389490   -0.5144207121    3.9905677568
C       -2.1137227241   -1.6876025435    4.7603119765
C       -2.2076025334   -1.0471801606    3.4965790162
C       -1.1081744482   -0.3966032440    1.3068941756
C       -0.0100437265   -0.4225271490    0.4893267757
C       -1.0238906758   -1.0417877648    2.6034543446
C       -1.0194911848    0.8580532682   -1.3553272770
C        1.3436782837   -0.0572063341   -1.5146177166
N       -3.1373216671   -1.7495688145    5.6392706483
N       -3.3736492040   -0.4517234593    3.1147271108
N        0.1003436170    0.1199367658   -0.7447931056
O        0.0175958768   -1.5871749243    2.9624760539
H       -5.1355491400   -1.1711830073    5.8974908518
H       -5.3368505968   -0.0544990781    3.7254092864
H       -1.1799705816   -2.1565854504    5.0485622470
H       -2.0258357239    0.0857367162    1.0025755789
H        0.8708504147   -0.9388041182    0.8636103248
H       -1.3293210511    1.6845843678   -0.7078708598
H       -1.8686145450    0.1874026003   -1.5221931599
H       -0.7216709183    1.2788315487   -2.3209404978
H        1.1848542346   -0.7785457496   -2.3227123986
H        2.1525894625   -0.4258522345   -0.8756837626
H        1.6643220116    0.8978131117   -1.9425537069
