19   

C        1.7384419050   -1.2550414615   -0.1122797101
C        0.7594316876   -0.5075776361    0.5303299408
C        2.7566132287   -1.8501374572    0.6347322565
C        0.8073010089   -0.3576061286    1.9153937760
C        2.8280617124   -1.7222434619    2.0404848157
C        1.8262642399   -0.9506732063    2.6864757229
C        3.9374114945   -2.3782579180    2.7466363214
C        1.8205882475   -0.7129791554    4.1780480022
N        4.0768571046   -2.6267519805    4.0910981762
N        5.0301618460   -2.8515689983    2.1031537344
N        5.2770297631   -3.2535563796    4.2090870160
N        5.8283600947   -3.3841371948    3.0607114951
H        1.7153430502   -1.3773122736   -1.1884326308
H       -0.0339061397   -0.0418628443   -0.0418556817
H        3.5107555715   -2.4302256731    0.1154791494
H        0.0396935874    0.2333955542    2.3998319150
H        1.6340956681   -1.6524086152    4.7071425116
H        2.7825631229   -0.3020116678    4.4992558375
H        1.0397017347   -0.0015160623    4.4605778532
19   

C        1.7129373679   -1.2940506389   -0.1207866744
C        0.7450746494   -0.5273954738    0.5192876471
C        2.7303749555   -1.8896770170    0.6275689642
C        0.8041278531   -0.3562383982    1.9025892051
C        2.8048605819   -1.7452875433    2.0284876693
C        1.8220583411   -0.9504426122    2.6730367226
C        3.9194818294   -2.3869559898    2.7407815494
C        1.8515888829   -0.6869225626    4.1595307992
N        3.9559085739   -2.8265543282    4.0413762491
N        5.1183903895   -2.6198858990    2.1598426355
N        5.2106010657   -3.3260490026    4.1994006316
N        5.8819064841   -3.2075950244    3.1139400539
H        1.6822551979   -1.4285954825   -1.1952683926
H       -0.0467381467   -0.0606991811   -0.0541978797
H        3.4837828511   -2.4827234644    0.1216210239
H        0.0492485323    0.2523801298    2.3852103065
H        1.5998733972   -1.6006483259    4.7063002373
H        2.8469646488   -0.3497437461    4.4649109916
H        1.1321413184    0.0891075902    4.4351946979
19   

C        1.7018344046   -1.3117164339   -0.1259327507
C        0.7477904347   -0.5265566485    0.5158737898
C        2.7149296539   -1.9180840150    0.6206142963
C        0.8167249626   -0.3454997891    1.8986290330
C        2.7904109276   -1.7678567995    2.0176848014
C        1.8298562457   -0.9513841609    2.6651502867
C        3.9059646115   -2.4037067755    2.7384499902
C        1.8880639830   -0.6855885135    4.1499699662
N        3.8595509943   -3.0319566148    3.9574608959
N        5.1751592333   -2.4030973753    2.2762030273
N        5.1448365613   -3.4126227804    4.1879984748
N        5.9038012516   -3.0508678654    3.2191041753
H        1.6642329728   -1.4500068025   -1.1997019945
H       -0.0398453038   -0.0514253365   -0.0564300386
H        3.4660189000   -2.5214532056    0.1234472144
H        0.0758343733    0.2788182474    2.3828577263
H        1.6063228877   -1.5875489144    4.7015675309
H        2.9012673801   -0.3930999880    4.4430190449
H        1.2053195902    0.1210849634    4.4309542360
19   

C        2.0351236024   -0.7401682797   -0.1290701897
C        0.8618364813   -0.3414555702    0.5086925589
C        3.0419896072   -1.3722511080    0.6053525312
C        0.7042672260   -0.5687559713    1.8782659920
C        2.8906584990   -1.6312339081    1.9777833104
C        1.7084956498   -1.2058518280    2.6301188222
C        4.0016554027   -2.2597225452    2.7199436545
C        1.5218274379   -1.3995209837    4.1151247231
N        3.9284516763   -3.3778795073    3.5095857682
N        5.2484913278   -1.7466455279    2.7605333720
N        5.1890850570   -3.5175140478    4.0017986198
N        5.9503453570   -2.5783840799    3.5703876534
H        2.1711255706   -0.5573962973   -1.1881220857
H        0.0778405010    0.1508059480   -0.0540453801
H        3.9642011396   -1.6737418743    0.1220344008
H       -0.2069292462   -0.2420388922    2.3641817676
H        1.4039638753   -2.4637368677    4.3403836824
H        2.3936059485   -1.0199538529    4.6574388881
H        0.6355657883   -0.8675135725    4.4718894765
19   

C        2.0221875122   -0.7555442235   -0.1439809872
C        0.8571549240   -0.3442242539    0.5031948716
C        3.0361780606   -1.3821495087    0.5861167727
C        0.7126172675   -0.5554261475    1.8775284727
C        2.8974648847   -1.6165616502    1.9627401206
C        1.7241320840   -1.1859711032    2.6243539574
C        4.0014419009   -2.2501989891    2.7188404210
C        1.5569966347   -1.3824691364    4.1109952267
N        3.9850476308   -3.5049568669    3.2674381701
N        5.1577401764   -1.6256035124    3.0155042546
N        5.1913641884   -3.6052152543    3.8890184789
N        5.8677260986   -2.5234304580    3.7438177594
H        2.1449953870   -0.5878199830   -1.2071171399
H        0.0681203534    0.1430897851   -0.0568005128
H        3.9509609670   -1.6973029840    0.0979202028
H       -0.1932803352   -0.2234066707    2.3696999132
H        1.5105349543   -2.4509610515    4.3426970042
H        2.4068704882   -0.9457206483    4.6450094285
H        0.6400938220   -0.9066694067    4.4696800872
19   

C        2.0190236341   -0.7821085137   -0.1503746889
C        0.8616004828   -0.3513084381    0.4987480571
C        3.0362864657   -1.3995793644    0.5832681848
C        0.7250747575   -0.5389364286    1.8776324135
C        2.9114550334   -1.5936233301    1.9668733952
C        1.7406401997   -1.1585090924    2.6278390218
C        4.0006464738   -2.2497473894    2.7296371082
C        1.5774294696   -1.3534899361    4.1148718704
N        4.1205631666   -3.5935134711    2.9593415133
N        5.0230584174   -1.5822189202    3.2959847654
N        5.2605921800   -3.6960030752    3.6954743728
N        5.7815365414   -2.5381362571    3.8890092188
H        2.1316803081   -0.6397118756   -1.2183143325
H        0.0699054684    0.1279792609   -0.0644091702
H        3.9412335492   -1.7389558768    0.0931157105
H       -0.1783066193   -0.1998976082    2.3696316388
H        1.6283280933   -2.4191860270    4.3592032109
H        2.3792070259   -0.8344592369    4.6494399464
H        0.6167329012   -0.9613987317    4.4599610994
19   

C        2.0163713758   -0.8108400481   -0.1449796050
C        0.8673360027   -0.3530578980    0.4994143797
C        3.0318690446   -1.4191448690    0.5983519278
C        0.7356728420   -0.5102953290    1.8821654359
C        2.9214957066   -1.5676318704    1.9894390053
C        1.7504629420   -1.1195608555    2.6421232130
C        3.9981609506   -2.2489430616    2.7439291312
C        1.5785550873   -1.2985964732    4.1302988739
N        4.3251692971   -3.5743982946    2.6467154955
N        4.8598830434   -1.6116876866    3.5592653039
N        5.3993440610   -3.7055195188    3.4719408951
N        5.7085473073   -2.5752188235    3.9973243448
H        2.1227911063   -0.6998196953   -1.2172763173
H        0.0763304199    0.1186891084   -0.0710279965
H        3.9260883403   -1.7881768931    0.1095597230
H       -0.1651281214   -0.1578918914    2.3694874736
H        1.6973146062   -2.3535358652    4.3968843355
H        2.3342942822   -0.7155603210    4.6655919063
H        0.5879852037   -0.9674687629    4.4542087930
19   

C        2.0175070189   -0.8413083580   -0.1367630277
C        0.8753798030   -0.3520773921    0.4944407453
C        3.0183261604   -1.4550978475    0.6210968702
C        0.7357360023   -0.4860024157    1.8781323192
C        2.9062723215   -1.5765858363    2.0161713816
C        1.7362815276   -1.0996010505    2.6540212287
C        3.9688229597   -2.2750414679    2.7657164490
C        1.5354309875   -1.2620492619    4.1409850553
N        4.4900016884   -3.5007435920    2.4457733635
N        4.6573535591   -1.7310448502    3.7899223344
N        5.4855353399   -3.6818648506    3.3555809269
N        5.5829152458   -2.6625651620    4.1300398859
H        2.1299120396   -0.7518100708   -1.2104690334
H        0.0948997569    0.1237924306   -0.0869727577
H        3.9051183818   -1.8501788732    0.1386842419
H       -0.1623680933   -0.1125175440    2.3546381060
H        1.7153042191   -2.3009543924    4.4348352730
H        2.2334896360   -0.6175771838    4.6837941694
H        0.5158019958   -0.9934344622    4.4308160605
19   

C        2.0025708757   -0.8660268610   -0.1323673846
C        0.8738741300   -0.3555364165    0.5031942732
C        3.0008121008   -1.4860357608    0.6228235289
C        0.7458313362   -0.4750244522    1.8884451412
C        2.9027742339   -1.5971760763    2.0219132325
C        1.7436361935   -1.0946941457    2.6641849726
C        3.9744814546   -2.2924191061    2.7533898635
C        1.5306939795   -1.2423376113    4.1517186942
N        4.6643415780   -3.3832875001    2.2900901623
N        4.5039126765   -1.8806023832    3.9255309946
N        5.5928172592   -3.6244050678    3.2548026699
N        5.5011104620   -2.7587271390    4.1976010753
H        2.1076824934   -0.7874999072   -1.2076822928
H        0.0947197649    0.1255824112   -0.0756794072
H        3.8774689549   -1.8923319818    0.1310531654
H       -0.1438375737   -0.0850983129    2.3676372474
H        1.7380364976   -2.2704813056    4.4645308374
H        2.1985290957   -0.5655263828    4.6931171235
H        0.4990737897   -1.0043586275    4.4254465756
19   

C        1.9927541278   -0.8803942549   -0.1334588154
C        0.8745741052   -0.3541666589    0.5043404450
C        2.9882869113   -1.5052168070    0.6201945954
C        0.7558317373   -0.4622173327    1.8902884901
C        2.8998683855   -1.6129742853    2.0227449082
C        1.7500598044   -1.0878931681    2.6673893615
C        3.9847233421   -2.2993167802    2.7395063757
C        1.5247642134   -1.2126899306    4.1559626597
N        4.8246099359   -3.2320818051    2.1830945128
N        4.3631397251   -2.0580804643    4.0145574999
N        5.6888220303   -3.5494278470    3.1842029305
N        5.4233101700   -2.8728044157    4.2407263385
H        2.0933519652   -0.8090226274   -1.2097184038
H        0.0969188897    0.1315020002   -0.0727598403
H        3.8569668636   -1.9160041605    0.1182234992
H       -0.1268625400   -0.0574013369    2.3700609282
H        1.6891398769   -2.2450850250    4.4797200151
H        2.2115206889   -0.5532808297    4.6951988372
H        0.5012943828   -0.9350585913    4.4227857641
19   

C        1.9751746975   -0.9092803055   -0.1273219514
C        0.8636844364   -0.3743236130    0.5117936222
C        2.9736800546   -1.5284506032    0.6260393661
C        0.7566937607   -0.4661702040    1.8989347519
C        2.8958956685   -1.6285105727    2.0320643820
C        1.7533187832   -1.0870386955    2.6784127058
C        3.9953571539   -2.2994207211    2.7397823891
C        1.5301765629   -1.1696102735    4.1709820818
N        4.9751440824   -3.0481038457    2.1329050157
N        4.2340750000   -2.2555283306    4.0704810047
N        5.7819486598   -3.4490449528    3.1512460701
N        5.3548317634   -2.9920370891    4.2697954457
H        2.0695463074   -0.8480694102   -1.2047828970
H        0.0833290368    0.1079012215   -0.0645637585
H        3.8359975272   -1.9406250547    0.1146513807
H       -0.1205828486   -0.0495328269    2.3785227028
H        1.6103581849   -2.2070787020    4.5096076753
H        2.2692228601   -0.5571746575    4.6963502583
H        0.5349258320   -0.8061576444    4.4413100327
19   

C        1.9490654335   -0.9392299080   -0.1206442023
C        0.8401433687   -0.4037151371    0.5211323149
C        2.9563331293   -1.5452181131    0.6313393203
C        0.7468496576   -0.4782176343    1.9099013607
C        2.8896277786   -1.6356760368    2.0395685775
C        1.7523652063   -1.0857150915    2.6891941157
C        4.0006950205   -2.2926900077    2.7421174567
C        1.5537867539   -1.1137793208    4.1875480589
N        5.1070252493   -2.8291813356    2.1268050481
N        4.1128394592   -2.4722962588    4.0784265762
N        5.8625817497   -3.3241668378    3.1428340570
N        5.2891787742   -3.1184640676    4.2699204892
H        2.0350260674   -0.8885766374   -1.1993624346
H        0.0529187528    0.0687630510   -0.0539591391
H        3.8146632060   -1.9578497422    0.1138339467
H       -0.1260297951   -0.0545751032    2.3913616338
H        1.5254242546   -2.1473226427    4.5457395626
H        2.3655820846   -0.5758853422    4.6865221658
H        0.6119173419   -0.6355364891    4.4700802204
19   

C        1.9397290983   -0.9759630204   -0.1335139263
C        0.8298278183   -0.4379794948    0.5058232635
C        2.9529088808   -1.5676193517    0.6223610911
C        0.7431597439   -0.4916919647    1.8963802724
C        2.8879203361   -1.6436113369    2.0305377487
C        1.7547527206   -1.0844898192    2.6784273693
C        4.0035603975   -2.2841938382    2.7410324163
C        1.5877687633   -1.0618279353    4.1804203824
N        5.2141962869   -2.6012214679    2.1730064253
N        4.0017280163   -2.6898776219    4.0314136977
N        5.9202590632   -3.1903402798    3.1745676607
N        5.2211477584   -3.2418017905    4.2474333630
H        2.0217086063   -0.9380215695   -1.2130575122
H        0.0384616074    0.0236014377   -0.0724206985
H        3.8127860393   -1.9844142479    0.1106087326
H       -0.1263948297   -0.0605668576    2.3772249525
H        1.4549221327   -2.0795936156    4.5596094977
H        2.4648992618   -0.6090686913    4.6527414460
H        0.7120152368   -0.4748978517    4.4707098949
19   

C        1.9090916674   -1.0029486840   -0.1125711590
C        0.8082648992   -0.4509582489    0.5335650678
C        2.9278875169   -1.5921168358    0.6387086675
C        0.7366044506   -0.4855531278    1.9265008219
C        2.8717613131   -1.6541421603    2.0457227526
C        1.7538471665   -1.0763453883    2.7011190506
C        3.9940132613   -2.2776808864    2.7619233294
C        1.6297404898   -1.0282859464    4.2059243031
N        5.2713319786   -2.3887778414    2.2706952534
N        3.9187161950   -2.8978611801    3.9607069138
N        5.9471557650   -3.0694217136    3.2349154123
N        5.1677585687   -3.3633119979    4.2099156331
H        1.9798372048   -0.9761960350   -1.1932317149
H        0.0136625364    0.0090274663   -0.0414898394
H        3.7852116219   -2.0187879235    0.1305042857
H       -0.1220248296   -0.0408616557    2.4145678831
H        1.4306186781   -2.0304230755    4.5974562452
H        2.5533201003   -0.6454588289    4.6510358634
H        0.8108683826   -0.3711963525    4.5116078676
19   

C        1.9022675333   -1.0184999297   -0.1187446527
C        0.8082541042   -0.4504655342    0.5285269206
C        2.9191408649   -1.6121580386    0.6327588248
C        0.7410877455   -0.4719041803    1.9230178963
C        2.8608232298   -1.6648955661    2.0374840594
C        1.7560233698   -1.0682433815    2.6948031379
C        3.9825596008   -2.2750299477    2.7698264874
C        1.6579629283   -1.0183132756    4.2007196782
N        5.3014610139   -2.1880986976    2.4044585383
N        3.8556228128   -3.0999417212    3.8315526837
N        5.9514449558   -2.9592032991    3.3175824498
N        5.1188726642   -3.4851778075    4.1402928662
H        1.9693740930   -0.9988423676   -1.1997749416
H        0.0161697076    0.0129693440   -0.0472186630
H        3.7768489508   -2.0482496106    0.1331558919
H       -0.1094296244   -0.0143703222    2.4133869787
H        1.4310305704   -2.0142338622    4.5929388837
H        2.6036227290   -0.6745666876    4.6314017877
H        0.8688372213   -0.3316780038    4.5194904418
19   

C        1.8963104060   -1.0356748696   -0.1187592625
C        0.8151779128   -0.4424169359    0.5304090635
C        2.9077493826   -1.6406420448    0.6320697856
C        0.7545543436   -0.4496902665    1.9262252925
C        2.8512657270   -1.6791376454    2.0352382057
C        1.7644236525   -1.0571433436    2.6948285437
C        3.9675159454   -2.2887608050    2.7842942818
C        1.6866159372   -1.0128058658    4.2014027193
N        5.2953449415   -2.0127008982    2.5919295451
N        3.8267416922   -3.2988994247    3.6668802680
N        5.9342250013   -2.8689925029    3.4346873032
N        5.0888838768   -3.6106657335    4.0540053257
H        1.9575471471   -1.0256276863   -1.2002574017
H        0.0280649332    0.0294997029   -0.0452563768
H        3.7592570971   -2.0941921304    0.1376632806
H       -0.0849052917    0.0256796541    2.4186397995
H        1.4991721264   -2.0166341092    4.5944254957
H        2.6291040293   -0.6429673526    4.6172954932
H        0.8807201111   -0.3523979461    4.5333579940
19   

C        1.8704605916   -1.0546425714   -0.1293045999
C        0.8092872719   -0.4414293642    0.5362563367
C        2.8870049014   -1.6701148435    0.6066597254
C        0.7716087034   -0.4409003641    1.9336251919
C        2.8533038840   -1.6931356259    2.0094025463
C        1.7874170653   -1.0575900166    2.6861989474
C        3.9635459484   -2.3212377786    2.7613959464
C        1.7382438942   -1.0266825653    4.1938129535
N        5.2507584143   -1.8596218781    2.8180610733
N        3.8569347220   -3.4949659592    3.4128803299
N        5.8984915746   -2.7939876769    3.5660209438
N        5.0965192534   -3.7367921448    3.9083289340
H        1.9111252308   -1.0527085187   -1.2118078844
H        0.0186042458    0.0379109528   -0.0282727035
H        3.7225636487   -2.1421928764    0.1029588561
H       -0.0537101480    0.0458543204    2.4386319627
H        1.6372744746   -2.0439778481    4.5843598519
H        2.6605354604   -0.5900797671    4.5898237036
H        0.8918993780   -0.4312884629    4.5473645263
19   

C        1.8482178645   -1.0720759578   -0.1390923840
C        0.8045628641   -0.4377976514    0.5354729278
C        2.8740286320   -1.6827018926    0.5883561820
C        0.7898098185   -0.4160937895    1.9334916516
C        2.8707783298   -1.6678791825    1.9909939390
C        1.8153108104   -1.0264682970    2.6776962954
C        3.9666648118   -2.3211818288    2.7465600194
C        1.7844162323   -0.9938501790    4.1856395789
N        5.1318352223   -1.7238200150    3.1445448751
N        3.9413501959   -3.6094885617    3.1355332295
N        5.7986987126   -2.7156630215    3.7953891857
N        5.1141467041   -3.8023299678    3.7898293042
H        1.8659194082   -1.0930275615   -1.2220100281
H        0.0067259790    0.0370230583   -0.0227801872
H        3.6909461947   -2.1796559273    0.0784171294
H       -0.0260809553    0.0795017573    2.4451712027
H        1.7628746959   -2.0144282901    4.5805587150
H        2.6792121768   -0.4914278165    4.5663059293
H        0.9023002997   -0.4598448429    4.5496036880
19   

C        1.8273475432   -1.0902458371   -0.1360750792
C        0.7957998162   -0.4386858340    0.5397304721
C        2.8592004283   -1.6925847200    0.5894060669
C        0.7965117041   -0.3966444856    1.9370608146
C        2.8822410815   -1.6431000673    1.9916497692
C        1.8291141332   -0.9971011061    2.6798095479
C        3.9681802901   -2.3195676378    2.7367815640
C        1.7974202341   -0.9600216772    4.1878764723
N        4.9622058566   -1.7022724367    3.4484599446
N        4.0708075598   -3.6576991052    2.8548130915
N        5.6715667905   -2.7342688672    3.9808246225
N        5.1592158711   -3.8609273939    3.6388321240
H        1.8292914626   -1.1342041987   -1.2184500241
H       -0.0074482098    0.0290429328   -0.0167474501
H        3.6613445052   -2.2111799887    0.0774407094
H       -0.0149401499    0.1049330507    2.4499798344
H        1.8703196537   -1.9756076884    4.5897199026
H        2.6416416568   -0.3740588587    4.5639837547
H        0.8695630560   -0.5090887975    4.5504949873
19   

C        1.8159270535   -1.1052479483   -0.1279673333
C        0.7917548865   -0.4378132311    0.5412708568
C        2.8469706630   -1.7016493136    0.6027870933
C        0.7987715770   -0.3770215626    1.9371161738
C        2.8835714748   -1.6292174262    2.0052937515
C        1.8315385312   -0.9706701225    2.6858215172
C        3.9687841710   -2.3149232206    2.7343806191
C        1.7861100907   -0.9205072591    4.1934921381
N        4.8011307571   -1.7586529834    3.6708810455
N        4.2317044670   -3.6320631096    2.6076443522
N        5.5817076610   -2.7962893371    4.0770243278
N        5.2546201458   -3.8758808172    3.4646250973
H        1.8125784188   -1.1677807677   -1.2094331994
H       -0.0118145136    0.0252291599   -0.0186545781
H        3.6408063246   -2.2352565767    0.0928353525
H       -0.0100887599    0.1333517230    2.4454581256
H        1.9299208120   -1.9228633915    4.6091803022
H        2.5799934368   -0.2675577987    4.5684928349
H        0.8239602700   -0.5372149125    4.5444003047
19   

C        1.8115601274   -1.1220721327   -0.1177542867
C        0.7970170809   -0.4336635483    0.5421011946
C        2.8336651483   -1.7232022524    0.6206990217
C        0.8056141318   -0.3571096329    1.9362439398
C        2.8746337864   -1.6393703907    2.0247449221
C        1.8294205531   -0.9554532675    2.6944537541
C        3.9599924878   -2.3277345958    2.7434725150
C        1.7671404284   -0.8845850651    4.2010434839
N        4.6510348591   -1.8762607968    3.8395696506
N        4.3910727088   -3.5643991358    2.4127319845
N        5.5133503776   -2.8866434784    4.1321142295
N        5.3644302798   -3.8599793090    3.3098409426
H        1.8087926034   -1.1969837148   -1.1984480642
H       -0.0001396810    0.0335445169   -0.0235028325
H        3.6197033211   -2.2692881902    0.1114845354
H        0.0028135841    0.1701044001    2.4369686858
H        1.9144262853   -1.8792315213    4.6334711960
H        2.5484326019   -0.2163691026    4.5755287427
H        0.7970362798   -0.5071049999    4.5360392904
19   

C        1.8008122066   -1.1430730667   -0.1135878035
C        0.7982317638   -0.4343595954    0.5396753323
C        2.8149769529   -1.7510607666    0.6292617915
C        0.8127669001   -0.3431517080    1.9317024944
C        2.8618877488   -1.6617753798    2.0359765664
C        1.8281938520   -0.9488275322    2.6964931493
C        3.9514987207   -2.3480409588    2.7456013570
C        1.7580302954   -0.8482805096    4.2014574184
N        4.5098278363   -2.0275471028    3.9587106778
N        4.5575342931   -3.4537549456    2.2563246309
N        5.4619608166   -2.9772192085    4.1594642651
N        5.4904297763   -3.8003373354    3.1773273427
H        1.7967794502   -1.2272939026   -1.1936086397
H        0.0070288220    0.0389941919   -0.0291776779
H        3.5911288298   -2.3052202304    0.1136990309
H        0.0192397923    0.2032782566    2.4265878507
H        1.8565562371   -1.8405709179    4.6524324528
H        2.5627102080   -0.2056494222    4.5712146861
H        0.8027893707   -0.4238257939    4.5226549167
19   

C        1.7851214424   -1.1874484386   -0.1204028159
C        0.7952333759   -0.4554599842    0.5233215013
C        2.7929168101   -1.7972298597    0.6288528633
C        0.8181685857   -0.3410828677    1.9123846352
C        2.8473026993   -1.6936119805    2.0374209285
C        1.8268858853   -0.9486340175    2.6856255524
C        3.9413727971   -2.3720542649    2.7462663155
C        1.7602337653   -0.7999967163    4.1871971068
N        4.3618243773   -2.2061839292    4.0441019136
N        4.7209919248   -3.3071917447    2.1543707971
N        5.4021292366   -3.0688869165    4.1883441660
N        5.6104840177   -3.7051975204    3.0967460872
H        1.7779143985   -1.2872297686   -1.1990964906
H        0.0091449887    0.0204402089   -0.0504863177
H        3.5567952797   -2.3632137766    0.1082722285
H        0.0355279787    0.2281291121    2.3988588725
H        1.7762110617   -1.7839583505    4.6657651860
H        2.6102794397   -0.2106964074    4.5441242772
H        0.8410157422   -0.2923606184    4.4923728077
19   

C        1.7690019837   -1.2234258825   -0.1251564294
C        0.7811884697   -0.4865484231    0.5147002874
C        2.7815466961   -1.8227623391    0.6257991683
C        0.8131257336   -0.3543156533    1.9014723606
C        2.8426805552   -1.7077621576    2.0346118930
C        1.8264778898   -0.9514359991    2.6772974018
C        3.9456562309   -2.3727523235    2.7424947441
C        1.7803579950   -0.7543787916    4.1742560595
N        4.2170642865   -2.4062428933    4.0896770988
N        4.8977458642   -3.0862967864    2.0958680308
N        5.3456891387   -3.1542511245    4.2048852075
N        5.7398683645   -3.5478279960    3.0524418039
H        1.7571036814   -1.3348707386   -1.2026727917
H       -0.0083634314   -0.0180441343   -0.0604439659
H        3.5406506669   -2.3925026681    0.1026114536
H        0.0347202451    0.2239463870    2.3840470951
H        1.6934642351   -1.7212424003    4.6791663044
H        2.6876076210   -0.2468291626    4.5157220270
H        0.9217191460   -0.1431237033    4.4655776009
