25   

C        0.0057649835   -0.0788561480    1.3478539460
C        1.6315915788   -0.6648274863    2.9781618795
C       -0.8551095966   -1.0000274781    1.9441472874
C        1.2903646388    0.0991544980    1.8649608425
C        0.7109594023   -1.5707811312    3.5107770174
C        2.3068155728    1.0640187604    1.3402247223
C        2.8322932948    4.1096178093    0.8934907183
C        2.3049010593   -2.4959647339    5.2195058262
C        2.6593468637    2.9356601322   -0.0651948917
N       -0.5071643215   -1.7360286901    3.0089260562
N        0.9818793316   -2.3711626932    4.5951790204
O        3.4807867034    1.0202518223    1.6999490603
O        1.7633965729    1.9602501259    0.4871598488
H       -0.3328034559    0.4890644136    0.4901161680
H        2.6081268850   -0.5625168824    3.4306317343
H       -1.8481702147   -1.1272157029    1.5289633569
H        1.8615338113    4.5668773084    1.1069243954
H        3.2838225462    3.7739412729    1.8319854943
H        3.4855261387    4.8630411363    0.4437977550
H        3.0569092766   -2.7708792762    4.4723061658
H        2.2826766503   -3.2790804772    5.9839997803
H        2.5923305980   -1.5551283708    5.7002046830
H        3.6359011999    2.4923020037   -0.2902192741
H        2.2426902033    3.3018118539   -1.0087497386
H        0.2071785475   -2.9796683095    4.8346703334
25   

C       -0.0045953325   -0.1813465637    1.2540531984
C        1.6132868913   -0.6612449422    2.9260970329
C       -0.8612238908   -1.0780185323    1.8926020229
C        1.2749854004    0.0322566773    1.7672048216
C        0.6976755941   -1.5465023222    3.5003501686
C        2.2751099011    0.9929847864    1.2060392413
C        2.9376886785    4.0432884381    1.0463172204
C        2.2867340172   -2.3593313424    5.2691734297
C        2.5523248423    3.0069067462   -0.0045565384
N       -0.5142251700   -1.7523679275    2.9980474948
N        0.9669780220   -2.2811316487    4.6306327338
O        3.4797679668    0.8531248480    1.4004151348
O        1.6782889778    2.0174135929    0.5575825281
H       -0.3402675998    0.3423318808    0.3675360012
H        2.5854344476   -0.5188403245    3.3771950625
H       -1.8502814151   -1.2361940136    1.4785206367
H        2.0399230859    4.5195992312    1.4514586683
H        3.4924403356    3.5719020274    1.8632167033
H        3.5712732040    4.8120750845    0.5945036403
H        3.0469364330   -2.6642469120    4.5421771509
H        2.2672149151   -3.1022109554    6.0728966910
H        2.5607691866   -1.3918963758    5.7025504219
H        3.4552732434    2.5454828874   -0.4200991848
H        2.0336083331    3.5074433963   -0.8281922861
H        0.1971960379   -2.8851830754    4.8959556758
25   

C       -0.0051564358   -0.2828621776    1.1598177380
C        1.6014939278   -0.6426243889    2.8713682775
C       -0.8505927673   -1.1647461757    1.8332076848
C        1.2641710229   -0.0203196030    1.6729261234
C        0.6981904217   -1.5175200518    3.4799177767
C        2.2388730825    0.9462395074    1.0763455470
C        3.0643192023    3.9603878123    1.1847134631
C        2.2831400013   -2.2063588553    5.3038953706
C        2.4694883090    3.0825405588    0.0881836510
N       -0.5026025015   -1.7755054223    2.9748776175
N        0.9688119771   -2.1862246337    4.6500321387
O        3.4475358689    0.7317647650    1.0903962012
O        1.6224066748    2.0714178149    0.6528364361
H       -0.3402781850    0.1937976631    0.2470706832
H        2.5653644429   -0.4524478961    3.3223506746
H       -1.8317106639   -1.3634097460    1.4176902127
H        2.2647707466    4.4226905208    1.7712090762
H        3.6979434116    3.3655708612    1.8495072772
H        3.6751616487    4.7499369336    0.7373997415
H        3.0571152010   -2.5287395739    4.5993146412
H        2.2706582070   -2.9111251727    6.1413831921
H        2.5323017216   -1.2140841883    5.6939277237
H        3.2737575412    2.6357671418   -0.5071949701
H        1.8726778601    3.7055684104   -0.5853533947
H        0.2092648560   -2.7937841621    4.9361521905
25   

C       -0.0144676159   -0.3947528247    1.0708975350
C        1.5751150576   -0.6201675352    2.8195098734
C       -0.8392114185   -1.2760722239    1.7704280986
C        1.2360438471   -0.0650175702    1.5894988981
C        0.6938127541   -1.4993187188    3.4536909525
C        2.1794534535    0.9113924770    0.9554244961
C        3.2245873257    3.8403500794    1.2825672692
C        2.2733587828   -2.0510644949    5.3284363174
C        2.4103693615    3.1395856312    0.1996214803
N       -0.4886241098   -1.8228131422    2.9433250578
N        0.9692497877   -2.1052110058    4.6564252125
O        3.3580498119    0.6326487691    0.7587465020
O        1.5883533516    2.1112718599    0.7700226404
H       -0.3506225058    0.0292179060    0.1330425150
H        2.5247264730   -0.3747635620    3.2734503348
H       -1.8056890097   -1.5282423847    1.3496615065
H        2.5574569364    4.2662251399    2.0379131934
H        3.9074319973    3.1344497383    1.7649010966
H        3.8154226055    4.6470117246    0.8389238416
H        3.0691220912   -2.3727413726    4.6482295571
H        2.2736017090   -2.7219206360    6.1934240347
H        2.4804515289   -1.0355449807    5.6814713049
H        3.0819176863    2.7296612690   -0.5632147709
H        1.7646401072    3.8726248053   -0.2940431032
H        0.2276393841   -2.7277387191    4.9571915984
25   

C       -0.0388244206   -0.4983088907    0.9984971587
C        1.5073228748   -0.5633423129    2.7973350023
C       -0.8285036914   -1.4054248463    1.7055172406
C        1.1693194218   -0.0679607045    1.5422480382
C        0.6635671717   -1.4745516332    3.4375392690
C        2.0741851249    0.9292091628    0.8797495816
C        3.3776900891    3.7281617198    1.3445786444
C        2.2237203415   -1.8761673764    5.3660444783
C        2.3414721569    3.2167871169    0.3486771809
N       -0.4812276407   -1.8879243019    2.9071200783
N        0.9416281286   -2.0240432605    4.6664573644
O        3.1721648310    0.6090517897    0.4369076051
O        1.5506166020    2.1719013569    0.9327287296
H       -0.3687092626   -0.1345631482    0.0336058133
H        2.4269992176   -0.2462224716    3.2674518983
H       -1.7628388579   -1.7342743260    1.2655233808
H        2.8818260416    4.0910616018    2.2497894466
H        4.0759967162    2.9300310523    1.6140088781
H        3.9454286716    4.5506321718    0.8998057677
H        3.0533198547   -2.1653518581    4.7121799722
H        2.2431612179   -2.5256898601    6.2469576171
H        2.3614429546   -0.8421154777    5.6985188957
H        2.8415490253    2.8700846602   -0.5627111382
H        1.6800591253    4.0412948251    0.0645139344
H        0.2315270879   -2.6827910280    4.9663050110
25   

C       -0.0349072393   -0.6216003749    0.9240990506
C        1.4465039748   -0.5115178132    2.7729245118
C       -0.7697013667   -1.5757385220    1.6282031020
C        1.1049630317   -0.0657313930    1.5003941698
C        0.6612192754   -1.4766210850    3.4088177307
C        1.9627876354    0.9576757738    0.8134414703
C        3.5371285954    3.5983169104    1.3239293058
C        2.1919578768   -1.7150618994    5.3875906838
C        2.2983773196    3.2756370357    0.4940913591
N       -0.4268059093   -1.9965428167    2.8538713890
N        0.9459796774   -1.9770753133    4.6569935080
O        2.9034634425    0.6343962944    0.0963726539
O        1.5505995361    2.2105863176    1.0979212205
H       -0.3524622549   -0.3208032208   -0.0663223884
H        2.3222750796   -0.1116203284    3.2628228888
H       -1.6536738445   -1.9974504903    1.1640072929
H        3.2462707972    3.8705915939    2.3429076590
H        4.2081099280    2.7347759217    1.3613197313
H        4.0761852439    4.4377759287    0.8752408989
H        3.0600680459   -1.9450537986    4.7607836210
H        2.2397685277   -2.3483291203    6.2791997473
H        2.2359929067   -0.6685754412    5.7064493317
H        2.5929633870    3.0202010182   -0.5300221818
H        1.6622544566    4.1646222350    0.4385906246
H        0.2838523987   -2.6873024381    4.9491998876
25   

C       -0.0234778933   -0.7232670399    0.8621355379
C        1.3754249784   -0.4491834931    2.7559473177
C       -0.6921273619   -1.7304524837    1.5578180003
C        1.0313365455   -0.0455824336    1.4697048514
C        0.6605487022   -1.4734289239    3.3825420987
C        1.8358574251    1.0114430516    0.7719612644
C        3.6632251948    3.4772195635    1.2766597901
C        2.1440884893   -1.5491093088    5.4099311403
C        2.2750297407    3.3324127267    0.6605875193
N       -0.3566972564   -2.0980481211    2.8024097382
N        0.9509016651   -1.9319618761    4.6454356134
O        2.5673324590    0.7402679812   -0.1742408547
O        1.5694971188    2.2396673084    1.2656115009
H       -0.3232916363   -0.4763098702   -0.1486965028
H        2.1969006401    0.0325299721    3.2657914987
H       -1.5134322535   -2.2422488470    1.0697054693
H        3.5807165094    3.6306889037    2.3568216055
H        4.2613437825    2.5807924661    1.0866860054
H        4.1769167155    4.3371443421    0.8370952120
H        3.0489313643   -1.7068208639    4.8134691551
H        2.2205751664   -2.1648720653    6.3117498896
H        2.0831230802   -0.4992398579    5.7145438550
H        2.3610566145    3.1964377972   -0.4233237946
H        1.7091444769    4.2538592217    0.8300548278
H        0.3462261845   -2.6954133731    4.9279335271
25   

C       -0.0027615338   -0.7847040076    0.8149746243
C        1.3109634356   -0.3814774233    2.7450938763
C       -0.6059165445   -1.8392179297    1.4998429135
C        0.9698053838   -0.0121552857    1.4471367435
C        0.6655512080   -1.4575224288    3.3602793818
C        1.7132082991    1.0875839118    0.7530705716
C        3.7573855317    3.3810451639    1.2169220257
C        2.0880749964   -1.3933169817    5.4316457856
C        2.2790787781    3.3830575767    0.8394025510
N       -0.2789372053   -2.1684089528    2.7572399869
N        0.9577216167   -1.8838657986    4.6339782658
O        2.2355076943    0.9126157078   -0.3429876284
O        1.6120859241    2.2560960688    1.4249874581
H       -0.2871797164   -0.5738734613   -0.2086788193
H        2.0757942191    0.1685596802    3.2737996418
H       -1.3650828449   -2.4225143071    0.9917407073
H        3.8672710447    3.3983910784    2.3053837465
H        4.2519589660    2.4887159673    0.8211486140
H        4.2488866680    4.2645875229    0.7994004722
H        3.0223618379   -1.4801280455    4.8669064584
H        2.1859415618   -1.9909063080    6.3435673099
H        1.9287051587   -0.3492441345    5.7201733377
H        2.1730836502    3.3835322758   -0.2512270075
H        1.8142142095    4.3008488289    1.2129671331
H        0.4097111429   -2.6923410836    4.9066671330
25   

C        0.0516072994   -0.8276778491    0.7726703325
C        1.2668838117   -0.3354897300    2.7450069431
C       -0.4948055586   -1.9260054643    1.4354270469
C        0.9446829862    0.0132579000    1.4358329513
C        0.6823464670   -1.4583629304    3.3370966081
C        1.6187093045    1.1674762983    0.7636076975
C        3.8289689203    3.3173670733    1.1431427794
C        2.0219162198   -1.2933156950    5.4578405884
C        2.3112928073    3.4156485802    1.0203456859
N       -0.1862148011   -2.2349900278    2.7022832701
N        0.9624254211   -1.8668797898    4.6193412157
O        1.9511109131    1.1124411936   -0.4163243309
O        1.6882116498    2.2482142631    1.5742785240
H       -0.2154251253   -0.6341776016   -0.2593110763
H        1.9708750831    0.2652730082    3.3024520101
H       -1.1922572108   -2.5611282422    0.9016447798
H        4.1141913273    3.1967710360    2.1925244033
H        4.2046863409    2.4643798287    0.5697573058
H        4.2931911186    4.2284542851    0.7546134837
H        2.9809547542   -1.3111896721    4.9293820691
H        2.1286105674   -1.8812551812    6.3750237260
H        1.7748836314   -0.2636575256    5.7362705662
H        2.0306684797    3.5539609323   -0.0298145074
H        1.9626768686    4.2956355029    1.5699461418
H        0.4654119569   -2.7134492057    4.8734735109
25   

C        0.1040314527   -0.8791227510    0.7496878615
C        1.2213561849   -0.3218557174    2.7609736049
C       -0.3937792021   -2.0127627329    1.3902675813
C        0.9256943321    0.0121473110    1.4410200236
C        0.6888946690   -1.4821696970    3.3300373042
C        1.5266111330    1.2178166999    0.7911165458
C        3.8698600176    3.2498897699    1.0104673729
C        1.9344723534   -1.2383427772    5.5005798324
C        2.3587318647    3.4035695173    1.1549337871
N       -0.1071372263   -2.3089723053    2.6648428758
N        0.9492536399   -1.8781278021    4.6204367539
O        1.6749024810    1.2769776595   -0.4259197854
O        1.7815435498    2.2016743472    1.6846133256
H       -0.1475594220   -0.6958733882   -0.2882148514
H        1.8661303018    0.3144930927    3.3496054357
H       -1.0344571620   -2.6859480480    0.8325012192
H        4.3176935743    3.0092488741    1.9792848023
H        4.1070453807    2.4531172112    0.2988436758
H        4.3051323622    4.1839451033    0.6435627240
H        2.9136796396   -1.1950090970    5.0121191536
H        2.0402289458   -1.8183999947    6.4228736239
H        1.6111437202   -0.2265584132    5.7661271554
H        1.9163128240    3.6617750919    0.1862524244
H        2.1456939803    4.2291029362    1.8412740597
H        0.4962834952   -2.7542423189    4.8560181323
25   

C        0.1865151448   -0.9018863251    0.7292396306
C        1.1930840094   -0.3049847980    2.7862085373
C       -0.2705515209   -2.0686808129    1.3393137756
C        0.9360440605    0.0249057155    1.4567222080
C        0.7054553162   -1.5000128326    3.3233515798
C        1.4674248711    1.2804174288    0.8405157902
C        3.9010432626    3.2232221669    0.8624973440
C        1.8448968447   -1.2099081327    5.5463404493
C        2.4405464093    3.3954169044    1.2687144261
N       -0.0152862535   -2.3634235159    2.6204341628
N        0.9340984087   -1.8939318690    4.6204454719
O        1.4414374340    1.4514438089   -0.3749579856
O        1.9096351660    2.1599118889    1.7689637425
H       -0.0435823545   -0.7196717646   -0.3139190880
H        1.7731729620    0.3560246049    3.4133884093
H       -0.8534421106   -2.7686112595    0.7518681323
H        4.4904470188    2.8759077518    1.7163247250
H        3.9886227410    2.4973070831    0.0483436167
H        4.3067603670    4.1796025533    0.5200295899
H        2.8398618371   -1.1085189335    5.1001606159
H        1.9434407534   -1.7922096446    6.4680139491
H        1.4557034844   -0.2198744414    5.8054371585
H        1.8573713640    3.7601258216    0.4156678834
H        2.3739306463    4.1522495147    2.0565647824
H        0.5210416983   -2.7960069296    4.8299468318
25   

C       -0.2165341162   -0.1450263376    1.1671229199
C        1.6037171909   -0.9779460576    2.4288019946
C       -1.0725438148   -0.6643927367    2.1364990463
C        1.1663382290   -0.2939569980    1.2958189243
C        0.6809511294   -1.4630678139    3.3604019195
C        2.1228154593    0.2448069853    0.2788622929
C        4.7248563123    1.9348494254   -0.0428159408
C        2.4251328010   -2.2690265325    4.9830498378
C        4.4007574820    0.4708887874   -0.3241114879
N       -0.6293702386   -1.3147209247    3.2197655990
N        1.0438410324   -2.1312275275    4.5057590117
O        1.7210495223    0.8448402343   -0.7141613990
O        3.4125524201   -0.0123886527    0.5971802610
H       -0.6329973697    0.3740062641    0.3118177547
H        2.6571951125   -1.1409126996    2.6026374433
H       -2.1411763731   -0.5352210955    2.0096213042
H        3.8371891137    2.5579802968   -0.1882796819
H        5.0786433076    2.0507702229    0.9859719703
H        5.5068877525    2.2799040247   -0.7254155605
H        2.9027061574   -1.2867512544    5.0628224574
H        3.0034543937   -2.9048256489    4.3047618492
H        2.4305772406   -2.7313506635    5.9752643742
H        5.3107933046   -0.1263559150   -0.2097897740
H        4.0639256269    0.3569599104   -1.3606525225
H        0.2438700704   -2.3944514011    5.0705604991
25   

C       -0.2422965583   -0.2178650127    1.1259105313
C        1.6037034535   -0.9329982818    2.4227966294
C       -1.0813375587   -0.7879142902    2.0816986710
C        1.1442244831   -0.2867055744    1.2766654845
C        0.6966870583   -1.4728850919    3.3394656208
C        2.0854181185    0.3288016418    0.2899209015
C        4.8118933714    1.8144800443    0.0489735253
C        2.4584845446   -2.1557984832    4.9989219079
C        4.3350890120    0.4491065576   -0.4369278443
N       -0.6176773622   -1.4085597004    3.1740032348
N        1.0801599398   -2.1091520603    4.4961827309
O        1.6808996753    1.0921149734   -0.5824395262
O        3.3595006478   -0.0920785284    0.4652459360
H       -0.6739457231    0.2796297734    0.2653843874
H        2.6627872329   -1.0206378047    2.6163215776
H       -2.1535826892   -0.7230445316    1.9373394923
H        3.9804223536    2.5256621053    0.0675370088
H        5.2325538327    1.7296528018    1.0554014298
H        5.5833841642    2.1998153896   -0.6239847087
H        2.8708943526   -1.1445959827    5.0807630775
H        3.0884226991   -2.7570086218    4.3352273927
H        2.4753290283   -2.6113474074    5.9941400192
H        5.1891950396   -0.2337488307   -0.4833368638
H        3.9307463015    0.5354355923   -1.4517415274
H        0.2883501610   -2.4195496964    5.0483942505
25   

C       -0.2570788244   -0.2841026722    1.0801119050
C        1.5968584167   -0.8835585500    2.4247445353
C       -1.0824652202   -0.9064848375    2.0153483217
C        1.1261735148   -0.2730978143    1.2641520783
C        0.7031971670   -1.4798964723    3.3188615223
C        2.0555403988    0.4204452873    0.3194364472
C        4.8856007388    1.6904512511    0.1038792430
C        2.4628172740   -2.0454328148    5.0236136372
C        4.2559924640    0.4648084896   -0.5513911119
N       -0.6081049308   -1.4990500788    3.1191188264
N        1.0970441902   -2.0874362787    4.4874001979
O        1.6632397557    1.3287070980   -0.4070757613
O        3.2908826578   -0.1320214487    0.3264492013
H       -0.6954865676    0.1937295141    0.2120139306
H        2.6555876888   -0.8961427908    2.6394371387
H       -2.1530036219   -0.9058704026    1.8459456141
H        4.1261620237    2.4549886498    0.2942674912
H        5.3565179189    1.4103513048    1.0509022744
H        5.6475412898    2.1148180885   -0.5563474847
H        2.8085139212   -1.0099750299    5.1110127617
H        3.1454464786   -2.6075354280    4.3779959615
H        2.4840224600   -2.4960873741    6.0209786795
H        5.0386866180   -0.2694925572   -0.7662051648
H        3.8008455031    0.7461868565   -1.5076419780
H        0.3131114804   -2.4462370236    5.0212237556
25   

C       -0.2479151497   -0.3555101450    1.0442704090
C        1.5955274571   -0.8465957482    2.4477772817
C       -1.0622421857   -1.0356809720    1.9489013853
C        1.1245164764   -0.2642390156    1.2737204557
C        0.7129437909   -1.5042046854    3.3090149677
C        2.0434978861    0.5074387316    0.3801788917
C        4.9550477365    1.5607011621    0.1252883438
C        2.4453305440   -1.9552232294    5.0739124299
C        4.1688854710    0.5152407339   -0.6602282867
N       -0.5872660497   -1.6057282023    3.0647196740
N        1.1062412957   -2.0908984380    4.4882486079
O        1.6788166812    1.5428553421   -0.1681630508
O        3.2170185075   -0.1383438967    0.1910952182
H       -0.6858282767    0.1058408148    0.1672743406
H        2.6465402364   -0.7886423361    2.6912497263
H       -2.1249336081   -1.0995894880    1.7455639406
H        4.2857362180    2.3419596607    0.4983547429
H        5.4635562940    1.0905359813    0.9723188307
H        5.7047752789    2.0255336950   -0.5215322352
H        2.7171158531   -0.8985712211    5.1685628909
H        3.1875699992   -2.4717431689    4.4566363239
H        2.4599982924   -2.4004850951    6.0738191026
H        4.8622944305   -0.2343078270   -1.0543502045
H        3.6754801945    0.9866978781   -1.5175475963
H        0.3292890427   -2.5003032757    4.9952186264
25   

C       -0.2282342145   -0.4303017741    1.0186732018
C        1.5843951871   -0.8080383827    2.4970110842
C       -1.0310987752   -1.1730898828    1.8838427063
C        1.1230993140   -0.2501357501    1.3081342066
C        0.7137260930   -1.5323749698    3.3156380581
C        2.0296696126    0.5950169907    0.4669097161
C        4.9939068926    1.4502107422    0.0986982107
C        2.3954984753   -1.8746090530    5.1521528201
C        4.0503140972    0.6168213812   -0.7632840081
N       -0.5651125399   -1.7203104994    3.0150972312
N        1.0969095910   -2.1017201401    4.5066294524
O        1.7133090350    1.7314806279    0.1305759518
O        3.1182500865   -0.0962882479    0.0616781194
H       -0.6592016722    0.0102026534    0.1279249973
H        2.6183211113   -0.6789084218    2.7822461448
H       -2.0776653811   -1.3068743717    1.6357783037
H        4.4339736664    2.2061663279    0.6577124615
H        5.5270432982    0.8053332880    0.8036969835
H        5.7256194360    1.9586360155   -0.5358450278
H        2.5881594980   -0.8018795035    5.2593527321
H        3.1990582701   -2.3358194563    4.5687901970
H        2.3963672297   -2.3211286970    6.1516082297
H        4.6352677916   -0.1063242738   -1.3402414083
H        3.5313901668    1.2633852920   -1.4797901342
H        0.3287890753   -2.5663162727    4.9782734509
25   

C       -0.1740619124   -0.4859549433    0.9984473599
C        1.5738987443   -0.7582040912    2.5761807842
C       -0.9722210195   -1.2910204053    1.8110315632
C        1.1409319227   -0.2152010615    1.3706004875
C        0.7093226378   -1.5487686779    3.3379360943
C        2.0469643606    0.6835808577    0.5815031330
C        5.0398186107    1.3275218497    0.0317341705
C        2.3021829060   -1.7962136233    5.2662580672
C        3.9350146422    0.7402187806   -0.8412392702
N       -0.5351647527   -1.8179772442    2.9633991646
N        1.0634898686   -2.1076170047    4.5428029161
O        1.8346748757    1.8879477208    0.4902706164
O        3.0159077256   -0.0191290977   -0.0433951811
H       -0.5813978875   -0.0704888953    0.0851439800
H        2.5798029950   -0.5649626865    2.9191486328
H       -1.9908682864   -1.4941738078    1.5014874251
H        4.6192968433    2.0232332173    0.7642398800
H        5.5671724496    0.5271274407    0.5593485987
H        5.7565789480    1.8703673257   -0.5912746614
H        2.4134127624   -0.7135815828    5.3883908485
H        3.1692646019   -2.1966239165    4.7309346207
H        2.2740651373   -2.2489306409    6.2625250532
H        4.3822895321    0.0780982390   -1.5892703378
H        3.4207669659    1.5431247108   -1.3812809511
H        0.3025217062   -2.6269382247    4.9665117231
25   

C       -0.0791568869   -0.5501234669    0.9642297014
C        1.5730880981   -0.7082871741    2.6583183946
C       -0.8701126326   -1.4169549056    1.7185881011
C        1.1784032318   -0.1785902047    1.4342456214
C        0.7183131100   -1.5652047444    3.3565361623
C        2.0927780181    0.7569022311    0.6967483108
C        5.0819275971    1.1860503827   -0.0732966300
C        2.1961009244   -1.7222266684    5.3831047365
C        3.8352352494    0.8762071475   -0.8961047141
N       -0.4762898506   -1.9181775386    2.8978236710
N        1.0323960671   -2.1123176261    4.5778067453
O        2.0506870020    1.9700660815    0.8700420490
O        2.9135645128    0.0826175792   -0.1352794962
H       -0.4476599340   -0.1690289269    0.0201813999
H        2.5393578955   -0.4501687941    3.0664746651
H       -1.8458194836   -1.6949774339    1.3372408114
H        4.8207588544    1.7793743701    0.8082216016
H        5.5598721709    0.2562225408    0.2492518662
H        5.7932172009    1.7565506465   -0.6776073310
H        2.2220258499   -0.6358355096    5.5190510831
H        3.1224523534   -2.0546280381    4.9033909128
H        2.1355416814   -2.1867425190    6.3724668706
H        4.1258830524    0.3167529446   -1.7908461415
H        3.3694380076    1.8097182313   -1.2314062276
H        0.2840073537   -2.6879253062    4.9476850895
25   

C       -0.1897929822    0.4744944016    1.9899172696
C        1.5950536691   -0.5203387440    3.1958135702
C       -0.9782154580   -0.6206012464    2.3436207058
C        1.1296548116    0.5444761474    2.4313202580
C        0.7430860079   -1.5855580924    3.4995326041
C        2.0642035502    1.6652146493    2.0816458433
C        2.5912229960    3.8707447264   -0.0447268517
C        2.5123487733   -2.9330063388    4.6717900631
C        3.3567366783    2.6086482802    0.3410878076
N       -0.5183893169   -1.6357066176    3.0885018435
N        1.1332465177   -2.6762199280    4.2396310091
O        2.4536382119    2.4673782884    2.9235480182
O        2.4514899346    1.5905213845    0.7904744583
H       -0.6075365088    1.2634694526    1.3774599204
H        2.6141317446   -0.5155200720    3.5547872789
H       -2.0051145386   -0.6547956945    1.9986115260
H        1.8594590262    3.6424894525   -0.8254655551
H        2.0704281346    4.2831230503    0.8248476791
H        3.2862317316    4.6257443096   -0.4235352584
H        3.1883749972   -2.9389934981    3.8102576763
H        2.5727252118   -3.9116498056    5.1585002614
H        2.8377437632   -2.1724230644    5.3890352934
H        4.1002523795    2.8448882675    1.1105728727
H        3.8991455104    2.2364002156   -0.5336805215
H        0.3902751731   -3.3567191565    4.3534366487
25   

C       -0.1084346940    0.4038093206    1.8711909090
C        1.6169818908   -0.5496494558    3.1933458803
C       -0.9201199983   -0.6691527973    2.2398684135
C        1.1903809309    0.4867981722    2.3689902084
C        0.7440964098   -1.5944935292    3.5074701043
C        2.1632637171    1.5647232543    1.9994691637
C        2.5859027281    3.9767522616    0.0864354843
C        2.4556745798   -2.9054611775    4.7996089173
C        3.2632100374    2.6133331247    0.1871006205
N       -0.5004521022   -1.6528733591    3.0481401280
N        1.0956466054   -2.6563721405    4.3064537567
O        2.7791331117    2.1972828570    2.8513751835
O        2.3353237666    1.6271883076    0.6609239646
H       -0.4906762170    1.1640372132    1.2016972099
H        2.6220135210   -0.5375899358    3.5906396761
H       -1.9312538780   -0.7132039636    1.8520740879
H        1.7207571430    3.9182558350   -0.5808363956
H        2.2546495912    4.3130946984    1.0736690537
H        3.2895095423    4.7127709697   -0.3132683289
H        3.1632802408   -2.9494055613    3.9649306713
H        2.4900871586   -3.8648448728    5.3255900114
H        2.7604363942   -2.1196594981    5.4985070046
H        4.1391905461    2.6801265895    0.8419992817
H        3.6187461517    2.3149857408   -0.8041473810
H        0.3437246516   -3.3272954387    4.4178718716
25   

C       -0.0528408750    0.3170275186    1.7555929515
C        1.6311893514   -0.5846201496    3.1663688020
C       -0.8853775283   -0.7260582690    2.1613043412
C        1.2362900203    0.4113282767    2.2778993148
C        0.7384738496   -1.6014988257    3.5144175646
C        2.2366573867    1.4520709803    1.8829800443
C        2.5887230814    4.0581742737    0.2278354643
C        2.4040489407   -2.8606258647    4.9134854958
C        3.1477506657    2.6488539539    0.0567264072
N       -0.4960004095   -1.6701697570    3.0297800686
N        1.0586553159   -2.6236787029    4.3759566685
O        3.0229138970    1.9300146539    2.6954852646
O        2.2153311514    1.6766181279    0.5502564483
H       -0.4115281330    1.0448415134    1.0385018094
H        2.6270580339   -0.5648234657    3.5864467905
H       -1.8879726590   -0.7795604066    1.7530674482
H        1.6326164940    4.1495465542   -0.2962211836
H        2.4388520206    4.2842054652    1.2879993522
H        3.2889457987    4.7888135140   -0.1873705739
H        3.1301585743   -2.9559731310    4.0992266699
H        2.4151939513   -3.7911411655    5.4899066088
H        2.7018870793   -2.0421621397    5.5769973064
H        4.1134127527    2.5666293273    0.5680381504
H        3.3244645168    2.4594142816   -1.0066940456
H        0.2967641796   -3.2801284675    4.5042554013
25   

C       -0.0111904959    0.2290023258    1.6481881262
C        1.6473094957   -0.6079978665    3.1289485267
C       -0.8587369591   -0.7816941973    2.1016110079
C        1.2752272714    0.3374285869    2.1769973632
C        0.7397761939   -1.5948463534    3.5221521086
C        2.2928626729    1.3492863493    1.7544323251
C        2.6211594446    4.1238854976    0.3857691808
C        2.3743606163   -2.7883537632    5.0122906030
C        3.0341651538    2.7153399400   -0.0304885837
N       -0.4890911331   -1.6793946883    3.0259922507
N        1.0380178436   -2.5687379783    4.4453806696
O        3.2114631735    1.6859745791    2.4968444784
O        2.1031844690    1.7486963904    0.4769495955
H       -0.3584845619    0.9205727008    0.8906057988
H        2.6367787958   -0.5772934402    3.5635324483
H       -1.8575932105   -0.8475109652    1.6860702222
H        1.6124640755    4.3426743357    0.0227867470
H        2.6382538716    4.2212702541    1.4755850905
H        3.3146532418    4.8553773233   -0.0391235497
H        3.1096856462   -2.9341275497    4.2139087952
H        2.3694177650   -3.6863334597    5.6382604767
H        2.6718380431   -1.9378076653    5.6343291596
H        4.0514070667    2.5068514033    0.3194897306
H        3.0461319432    2.6530363666   -1.1231668462
H        0.2682958963   -3.2102541696    4.5996519946
25   

C        0.0090112457    0.1300960004    1.5435937637
C        1.6517749399   -0.6378501857    3.0786437968
C       -0.8498091628   -0.8466771841    2.0470821154
C        1.2967201392    0.2531015914    2.0689075051
C        0.7327875648   -1.5930306512    3.5205100887
C        2.3240808932    1.2414399867    1.6137058883
C        2.6712225192    4.1507707290    0.5569759184
C        2.3448174983   -2.7107833131    5.0921208768
C        2.9110359115    2.7860206194   -0.0815310604
N       -0.4933613640   -1.6952605255    3.0213910485
N        1.0152556584   -2.5142133337    4.5011236489
O        3.3530431994    1.4410345872    2.2546627594
O        1.9878642539    1.8184027493    0.4385311760
H       -0.3336404995    0.7835804078    0.7508650043
H        2.6368733079   -0.5944306588    3.5219460230
H       -1.8475586335   -0.9255345719    1.6311470479
H        1.6418305504    4.4746354419    0.3766108348
H        2.8479434696    4.1048102427    1.6359098331
H        3.3534507863    4.8883934424    0.1245101909
H        3.0858555283   -2.9088876346    4.3104599623
H        2.3269107255   -3.5703191574    5.7696881440
H        2.6440416084   -1.8275676038    5.6659389246
H        3.9478880682    2.4735969184    0.0860878186
H        2.7655302184    2.8656033447   -1.1634068794
H        0.2390833503   -3.1398382276    4.6853297728
25   

C        0.0014708416    0.0232407274    1.4471607151
C        1.6331767285   -0.6590573192    3.0337092134
C       -0.8620637223   -0.9225149933    1.9993599812
C        1.2886617472    0.1698137672    1.9688291751
C        0.7095306031   -1.5862214429    3.5229836981
C        2.3164778368    1.1413422201    1.4788156812
C        2.7401508438    4.1390588523    0.7286324329
C        2.3081460017   -2.6137512181    5.1680712846
C        2.7782776990    2.8526418978   -0.0906019177
N       -0.5130895148   -1.7157175994    3.0217376031
N        0.9826288745   -2.4480369107    4.5587107566
O        3.4312374466    1.2112108028    1.9909540424
O        1.8634430729    1.8860432065    0.4460764992
H       -0.3383452213    0.6338742208    0.6198061439
H        2.6136293568   -0.5916050434    3.4841788691
H       -1.8578697165   -1.0222135784    1.5832378074
H        1.7247680057    4.5463132993    0.7420779686
H        3.0625197441    3.9477284899    1.7566681537
H        3.4115271461    4.8809544165    0.2865807578
H        3.0537066148   -2.8562274685    4.4033897362
H        2.2842901417   -3.4341801362    5.8923223019
H        2.6055606790   -1.7004722528    5.6937495273
H        3.8002505781    2.4580293540   -0.1163780958
H        2.4892512794    3.0759407125   -1.1223769648
H        0.2046122837   -3.0621412141    4.7716460445
