39

C      0.15891    3.40812    0.43505
C      0.59917    3.09352   -1.91502
C      0.89314    4.59635    0.42563
C      1.34070    4.27910   -1.94424
C     -0.15435   -0.28967   -4.72953
C     -0.28237   -1.62150   -3.10800
C      0.00564    2.63672   -0.72813
C      1.47584    5.00805   -0.76875
C      2.12999    0.68886    1.19391
C      1.76220   -0.74675    1.52510
C      0.70869    0.23822    1.03726
C     -1.11316   -0.12717    2.58399
C     -0.78447    1.34259   -0.69655
C      1.06939   -0.24131   -1.44923
C      0.04190    0.08646   -0.33695
N     -0.67249   -1.50042   -4.37020
N      0.52803    0.33300   -3.77547
N      0.43741   -0.53914   -2.72677
O     -0.91085   -0.99812   -0.27881
O     -0.12814    0.75807    2.04534
F      2.19523    6.16327   -0.78663
H     -0.28835    3.06461    1.36198
H      0.49264    2.51307   -2.82642
H      1.01455    5.19805    1.32149
H      1.80259    4.63722   -2.85946
H     -0.27624    0.14378   -5.71393
H     -0.50332   -2.44526   -2.44542
H      2.31344    1.36254    2.02352
H      2.72817    0.88409    0.31147
H      2.12269   -1.53786    0.87373
H      1.71691   -1.01667    2.57537
H     -1.48578    0.35209    3.49226
H     -0.67096   -1.09700    2.85034
H     -1.93878   -0.28939    1.88502
H     -1.25475    1.15856   -1.66619
H     -1.58796    1.41344    0.03842
H      1.73803    0.59854   -1.62855
H      1.67284   -1.10665   -1.16246
H     -0.50633   -1.70764    0.24787
