27   

C       -4.3482395312    0.0095786081    1.5992753572
C       -3.0710161919   -1.4971825999    0.2018905560
C       -3.1782118001    0.3870159570    2.2624020548
C       -1.8982533400   -1.0996897809    0.8559255741
C       -4.3105141943   -0.9378493902    0.5599144418
C       -1.9397864559   -0.1620351135    1.9029851870
C       -0.6837326480    1.5177535678    3.9256009093
C        0.8138511268    0.7248370122    1.6896202913
C       -5.5347088794   -1.3838027287   -0.1859329166
C       -6.8028352728   -0.5595854737   -0.0601155550
C       -0.1345398175   -1.2119351822    3.5232548879
O       -5.5037748029   -2.3360642133   -0.9557791841
S       -0.4131267724    0.3901151079    2.7444070055
H       -5.2817859010    0.4643512820    1.9103024558
H       -3.0106910087   -2.2291559323   -0.5979669817
H       -3.2325993571    1.1275937968    3.0550549458
H       -0.9491334863   -1.5214793866    0.5402310220
H       -0.0837067975    2.4173546839    3.9547417745
H       -1.4399733853    1.3560765285    4.6813631659
H        1.4361097105    1.5943912750    1.8548463926
H        0.9855533277    0.1015791450    0.8234101070
H       -6.5800487196    0.5001924330   -0.2099423244
H       -7.2475311724   -0.7078432226    0.9272814278
H       -7.5235129444   -0.8733522531   -0.8209170439
H        0.7450657626   -1.1348787345    4.1653803133
H       -1.0052334649   -1.4762868414    4.1261218577
H        0.0395691018   -1.9684562171    2.7571551709
27   

C       -4.3808224985   -0.0640018896    1.6964602998
C       -3.1022815143   -1.5161853936    0.2418563896
C       -3.2038848554    0.3325799588    2.3361044769
C       -1.9233048432   -1.0994784145    0.8722168591
C       -4.3439849782   -0.9957302678    0.6453361776
C       -1.9614763151   -0.1795709674    1.9356497855
C       -0.6945120664    1.5012504417    3.9501947635
C        0.7606873764    0.7825485445    1.6619443238
C       -5.5745229927   -1.4432099856   -0.0897748728
C       -6.7410593191   -0.4778210177   -0.1889649791
C       -0.0857336871   -1.2072632712    3.4893954988
O       -5.5854588343   -2.4799414988   -0.7417586124
S       -0.4270687770    0.3988859490    2.7447396520
H       -5.3214482942    0.3593118285    2.0307398394
H       -3.0482207102   -2.2319820096   -0.5729511229
H       -3.2560605389    1.0595684940    3.1413767706
H       -0.9723046855   -1.4911740224    0.5249895063
H       -0.1184222687    2.4164514460    3.9764799501
H       -1.4243213999    1.3076407174    4.7242194583
H        1.3633681821    1.6665140534    1.8232428688
H        0.9256279897    0.1765497747    0.7822836729
H       -6.3761699698    0.5378764919   -0.3638877095
H       -7.3246370561   -0.5037000833    0.7347349707
H       -7.3874737174   -0.7640265391   -1.0236766309
H        0.8090101875   -1.1172036705    4.1085032513
H       -0.9323303281   -1.5038715765    4.1112816085
H        0.0866321053   -1.9468940503    2.7065854578
27   

C       -4.3875652903   -0.1039402484    1.7675628744
C       -3.0968796649   -1.5019768800    0.2700915651
C       -3.2110687154    0.3076433988    2.3988139367
C       -1.9187333865   -1.0702775182    0.8917439078
C       -4.3422949139   -1.0194268138    0.7050634066
C       -1.9629932337   -0.1707859580    1.9728387973
C       -0.7045098768    1.5014475729    3.9997049634
C        0.7344017091    0.8524070176    1.6805431125
C       -5.5737723868   -1.4689099375   -0.0301289147
C       -6.6083132631   -0.4171163194   -0.3813399113
C       -0.0461298044   -1.1859503135    3.4840509031
O       -5.6368436612   -2.5813290751   -0.5378603584
S       -0.4303216621    0.4254351860    2.7722322928
H       -5.3363654942    0.2912488401    2.1136327429
H       -3.0431773363   -2.2013705229   -0.5588034512
H       -3.2681269782    1.0198007725    3.2168999608
H       -0.9640579171   -1.4339507230    0.5246882231
H       -0.1476043672    2.4281752210    4.0339967700
H       -1.4192562554    1.2790994031    4.7800508157
H        1.3202478990    1.7463251516    1.8488506848
H        0.9008898657    0.2644004121    0.7890572946
H       -6.1139509790    0.5193983226   -0.6533248200
H       -7.2679990964   -0.2451213393    0.4727054972
H       -7.2084315506   -0.7562086313   -1.2305929350
H        0.8551568235   -1.0883050947    4.0924273235
H       -0.8778011121   -1.5105395913    4.1120925127
H        0.1301760859   -1.9084199134    2.6862309803
27   

C       -4.4124540311   -0.1440963500    1.8727588317
C       -3.1494055623   -1.4691470829    0.2894700850
C       -3.2230437762    0.2745653434    2.4741578711
C       -1.9581632267   -1.0311586544    0.8814406562
C       -4.3862697554   -1.0286118448    0.7852454381
C       -1.9816681815   -0.1653455050    1.9906025624
C       -0.6847350298    1.4780196289    4.0169825918
C        0.6901270597    0.9055834208    1.6391327423
C       -5.6419919912   -1.4758773783    0.0858991540
C       -6.5306625868   -0.3907090430   -0.4878215952
C       -0.0050792363   -1.1863659833    3.4161548266
O       -5.7960984444   -2.6422128063   -0.2515354664
S       -0.4336723836    0.4357418756    2.7559304150
H       -5.3583749066    0.2187853903    2.2600664290
H       -3.1155635493   -2.1440581211   -0.5602947903
H       -3.2655668898    0.9611523188    3.3146605641
H       -1.0100188733   -1.3641348588    0.4708829732
H       -0.1404524506    2.4119940742    4.0565997481
H       -1.3713897251    1.2263557242    4.8135045895
H        1.2678908855    1.8041444063    1.8106332711
H        0.8381133550    0.3406259948    0.7296954711
H       -5.9178134982    0.4121604020   -0.9063488586
H       -7.1727190690    0.0168512607    0.2967862276
H       -7.1585459916   -0.8051087913   -1.2816915539
H        0.9138545060   -1.0904628396    3.9978134232
H       -0.8117489053   -1.5375067346    4.0623100461
H        0.1548873755   -1.8872387910    2.5959327569
27   

C       -4.4162434353   -0.1440090064    1.9956217553
C       -3.2100508022   -1.4342683336    0.3439659231
C       -3.2076224097    0.2645830670    2.5641212517
C       -1.9986345130   -1.0070360033    0.9026185737
C       -4.4280687429   -1.0032668278    0.8886396229
C       -1.9836645431   -0.1632578047    2.0288109026
C       -0.6196513552    1.4382579604    4.0442527976
C        0.6720222534    0.9209948426    1.6078796767
C       -5.7204695383   -1.4390049440    0.2419886151
C       -6.4470653211   -0.3930635208   -0.5772041361
C        0.0428583440   -1.2111904128    3.3622323587
O       -6.0145940146   -2.6225995860    0.1466501698
S       -0.4108337907    0.4240096201    2.7530462500
H       -5.3498802241    0.2059806324    2.4228867778
H       -3.2063716348   -2.0949419136   -0.5172102737
H       -3.2221958361    0.9328624908    3.4201869632
H       -1.0650412660   -1.3318776744    0.4539852632
H       -0.0768060168    2.3730077472    4.0849015769
H       -1.2771656648    1.1672061997    4.8588396327
H        1.2530871122    1.8176336089    1.7783378607
H        0.7895246239    0.3759457501    0.6820260551
H       -5.7264829093    0.2231354451   -1.1216268248
H       -7.0407995202    0.2456217399    0.0813265235
H       -7.1115495938   -0.8792987800   -1.2970532474
H        0.9806156528   -1.1257132329    3.9147441032
H       -0.7409449711   -1.5786868358    4.0272041385
H        0.1764999280   -1.8933481130    2.5218015937
27   

C       -4.4218072013   -0.1299875966    2.0714921877
C       -3.2555117368   -1.3273542539    0.3272788027
C       -3.2015288509    0.2527654741    2.6322099087
C       -2.0313408560   -0.9274079631    0.8792881253
C       -4.4606999716   -0.9138963362    0.9108675281
C       -1.9902497884   -0.1401446085    2.0447560340
C       -0.5783598733    1.3797650291    4.0917649350
C        0.6633314528    0.9460335120    1.6129559410
C       -5.7796197262   -1.3516149503    0.3156984732
C       -6.3687779973   -0.4433651550   -0.7417305889
C        0.0540131008   -1.2454216937    3.2988812525
O       -6.3779246989   -2.3376698934    0.7219380226
S       -0.4011816327    0.4136927502    2.7597075322
H       -5.3476896690    0.1801377887    2.5446564425
H       -3.2667619642   -1.9500038409   -0.5611343547
H       -3.1983925907    0.8704947691    3.5254970229
H       -1.1074911700   -1.2306366801    0.3966062458
H       -0.0281089290    2.3087400933    4.1572705664
H       -1.2229037912    1.0829930915    4.9077638352
H        1.2535557082    1.8321400339    1.8056731180
H        0.7602151389    0.4351349039    0.6655580797
H       -5.7597309589   -0.4874252091   -1.6482317964
H       -6.3941838008    0.5865309238   -0.3759740412
H       -7.3878187526   -0.7615199834   -0.9796346483
H        1.0031226082   -1.1858167495    3.8351680651
H       -0.7187469496   -1.6325647883    3.9656854545
H        0.1660694725   -1.8967546049    2.4313079936
27   

C       -4.4381806239   -0.1044733645    2.1163327465
C       -3.2957234790   -1.2187368276    0.3057521522
C       -3.2118765153    0.2649545816    2.6719849318
C       -2.0647062631   -0.8328062608    0.8531192100
C       -4.4952186106   -0.8308238447    0.9190062281
C       -2.0084818166   -0.0931736498    2.0483473007
C       -0.5688436251    1.3602174755    4.1263101956
C        0.6429039938    1.0032728222    1.6199862317
C       -5.8240149354   -1.2863909270    0.3672960829
C       -6.3018510717   -0.6052973810   -0.8974944316
C        0.0479209663   -1.2375621477    3.2424143971
O       -6.5890842796   -1.9666927396    1.0368729402
S       -0.4109078442    0.4383024142    2.7610838041
H       -5.3590064326    0.1685740660    2.6219089848
H       -3.3141638038   -1.8101040871   -0.6034288778
H       -3.1990255600    0.8417572573    3.5921038969
H       -1.1467800333   -1.1120618776    0.3452937219
H       -0.0126409581    2.2834815455    4.2170311205
H       -1.2071615930    1.0403911347    4.9384922100
H        1.2400403012    1.8794782631    1.8353576356
H        0.7260694595    0.5240212762    0.6549528142
H       -5.8038232974   -1.0442347897   -1.7654336785
H       -6.0747236067    0.4632770743   -0.8546359253
H       -7.3828524286   -0.7330445550   -1.0038013520
H        1.0038241461   -1.1961845536    3.7682540977
H       -0.7170447649   -1.6439947852    3.9067588657
H        0.1475090449   -1.8616575244    2.3535786648
27   

C       -4.4480260184   -0.0620692698    2.1444131876
C       -3.3335113577   -1.1196901758    0.2851788194
C       -3.2141313168    0.2880039746    2.6950565812
C       -2.0943809684   -0.7526236110    0.8277491876
C       -4.5260980413   -0.7493738575    0.9242020106
C       -2.0201969596   -0.0515844983    2.0446837461
C       -0.5494855415    1.3307779511    4.1502271541
C        0.6273903643    1.0554730277    1.6170737720
C       -5.8642697420   -1.1891262629    0.3924812833
C       -6.2258831995   -0.7560313169   -1.0135567274
C        0.0510814357   -1.2359400862    3.1728529843
O       -6.7241471650   -1.6371532284    1.1392207199
S       -0.4124902926    0.4550496658    2.7527631578
H       -5.3609069965    0.1964068686    2.6721466662
H       -3.3612028018   -1.6831699978   -0.6411555956
H       -3.1886756819    0.8352087702    3.6328320174
H       -1.1837617439   -1.0169454008    0.2991978971
H        0.0111690583    2.2486467558    4.2650211122
H       -1.1788651618    0.9859774543    4.9591720778
H        1.2302636397    1.9221654499    1.8539092002
H        0.6950456808    0.6096155474    0.6349885458
H       -5.7535263637   -1.4208780329   -1.7406674037
H       -5.8868335628    0.2687456927   -1.1871795421
H       -7.3106176248   -0.7958117078   -1.1477181488
H        1.0143002997   -1.2121797144    3.6863103308
H       -0.7048650305   -1.6630865926    3.8345201618
H        0.1376012306   -1.8309089186    2.2629573797
27   

C       -4.4334754888   -0.0575429547    2.2242824718
C       -3.3602632500   -1.0355993572    0.3005023671
C       -3.1888839224    0.2788531919    2.7583132750
C       -2.1101681661   -0.6824222295    0.8274406541
C       -4.5415354679   -0.7020477168    0.9814922049
C       -2.0096293101   -0.0290886909    2.0682325440
C       -0.4957446161    1.2914793182    4.1835118255
C        0.6289601441    1.0926658369    1.6192488161
C       -5.8945311045   -1.1144417613    0.4730791262
C       -6.1818128733   -0.9302841964   -1.0044203437
C        0.0832538178   -1.2439049002    3.1171454818
O       -6.8095980825   -1.3681801301    1.2457779411
S       -0.3880517497    0.4587785976    2.7574854246
H       -5.3327707660    0.1815292754    2.7838941415
H       -3.4017465974   -1.5611410434   -0.6471884738
H       -3.1444370555    0.7919004996    3.7145039538
H       -1.2111262538   -0.9198537505    0.2672251143
H        0.0680072362    2.2052440428    4.3147225987
H       -1.1092123044    0.9229023303    4.9941853946
H        1.2371584203    1.9517679446    1.8697624206
H        0.6764707682    0.6765805801    0.6230439295
H       -5.7837904900   -1.7768422242   -1.5691991465
H       -5.7224681876   -0.0052205898   -1.3630724336
H       -7.2617664499   -0.8715954188   -1.1676339639
H        1.0568406818   -1.2354423516    3.6111520629
H       -0.6591252889   -1.6906116494    3.7812628279
H        0.1503921052   -1.8112443539    2.1881624249
27   

C       -4.2216422248    0.7045518877    1.5244822505
C       -3.6042148101   -1.5195377934    0.8303487125
C       -2.9480749234    0.9003614840    2.0600431773
C       -2.3187767144   -1.3164019040    1.3516398733
C       -4.5683908196   -0.5000482721    0.8896741957
C       -1.9788286200   -0.1072267780    1.9824823925
C       -0.0874326587    1.6927763296    3.2841936167
C        0.8913970060   -0.3520144195    1.6291206154
C       -5.9662549242   -0.6944620598    0.3764169724
C       -6.1806562670   -1.6567428589   -0.7774529522
C       -0.5191344611   -0.9913503295    3.9953221193
O       -6.8858616134    0.0223158577    0.7504441013
S       -0.2989670388    0.1816174797    2.6438829347
H       -4.9553446186    1.5011778854    1.6035869867
H       -3.8325559487   -2.4753670927    0.3723426477
H       -2.7119478697    1.8507434857    2.5297066608
H       -1.5794407046   -2.1065183628    1.2644815587
H        0.7842674598    2.2729423599    3.0129965516
H       -0.8019502251    2.1008825160    3.9858432270
H        1.7821787576    0.2470719821    1.4936986946
H        0.7806965250   -1.2765616951    1.0806797423
H       -6.2185865725   -2.6831204880   -0.4039057076
H       -5.3703406042   -1.5600879551   -1.5050611354
H       -7.1260918568   -1.4278907356   -1.2777774948
H        0.3794982384   -0.9758371309    4.6151783391
H       -1.3812018893   -0.6927195705    4.5947722052
H       -0.6667438062   -1.9939050663    3.5922964034
27   

C       -4.2140657322    0.7387745948    1.5173113103
C       -3.5870721371   -1.4616152696    0.7584611866
C       -2.9455808929    0.9197190371    2.0695457662
C       -2.3065561676   -1.2719393933    1.2969926489
C       -4.5563186571   -0.4484044176    0.8468584952
C       -1.9743593851   -0.0834964422    1.9694359756
C       -0.0977132134    1.6763174748    3.3459074256
C        0.8995046711   -0.3082273266    1.6295219744
C       -5.9440993839   -0.6186593543    0.2998003450
C       -6.2119255793   -1.7638552265   -0.6597871918
C       -0.5264903896   -1.0312677237    3.9615499565
O       -6.8295082986    0.1917456425    0.5425728811
S       -0.3001909877    0.1875894543    2.6524157304
H       -4.9463147016    1.5352043190    1.6108181612
H       -3.7985304271   -2.4035633787    0.2657558738
H       -2.7143324101    1.8563815995    2.5683287689
H       -1.5638269200   -2.0562739129    1.1888407409
H        0.7749015793    2.2672316111    3.1022339171
H       -0.8193856145    2.0588653496    4.0545905289
H        1.7899761203    0.2969771896    1.5221244158
H        0.7951350413   -1.2131642680    1.0481192522
H       -6.2148676145   -2.7127922710   -0.1173924220
H       -5.4496424445   -1.7863099016   -1.4431256077
H       -7.1890830424   -1.6269903721   -1.1321322885
H        0.3675537491   -1.0341179576    4.5881873431
H       -1.3938604839   -0.7556804518    4.5643571365
H       -0.6678261234   -2.0199749829    3.5235946174
27   

C       -4.2221692133    0.7695382823    1.4980502625
C       -3.5737315108   -1.4015995069    0.6760367570
C       -2.9613104973    0.9394717682    2.0708912816
C       -2.3009252497   -1.2223573200    1.2361143078
C       -4.5521734655   -0.3994649591    0.7899398255
C       -1.9833864325   -0.0547698002    1.9505192574
C       -0.1275181610    1.6757988648    3.3911391367
C        0.8948113139   -0.2586019792    1.6326738277
C       -5.9256826855   -0.5466895307    0.2006526628
C       -6.2678760456   -1.8241180250   -0.5443273111
C       -0.5508316267   -1.0488978830    3.9303060892
O       -6.7691631070    0.3332914995    0.3185537988
S       -0.3169498657    0.2052309967    2.6564483284
H       -4.9572175269    1.5618974958    1.6034460577
H       -3.7665864733   -2.3246798664    0.1420830430
H       -2.7403093281    1.8621960425    2.5994043841
H       -1.5511717448   -1.9970265624    1.1084179964
H        0.7448926561    2.2763904096    3.1714999548
H       -0.8576679396    2.0369166224    4.1023402843
H        1.7835424583    0.3530004317    1.5498281484
H        0.8003352404   -1.1483690729    1.0266897176
H       -6.1708779524   -2.6853654581    0.1217810959
H       -5.6071012190   -1.9439011357   -1.4069090926
H       -7.3006186977   -1.7758218452   -0.9018783579
H        0.3377553247   -1.0659441190    4.5644375320
H       -1.4242774243   -0.7920282444    4.5325736492
H       -0.6852848177   -2.0258000641    3.4645543732
27   

C       -4.1911826966    0.7779352374    1.4568195703
C       -3.5194672300   -1.3742824164    0.6032284418
C       -2.9427972357    0.9388890464    2.0588396312
C       -2.2586017155   -1.2034468234    1.1921505227
C       -4.5042528527   -0.3794008216    0.7230724694
C       -1.9596459800   -0.0503877238    1.9379320821
C       -0.1440757953    1.6509036734    3.4619543396
C        0.9249829123   -0.2172720530    1.6606239704
C       -5.8567386907   -0.5116397673    0.0845874935
C       -6.2946459247   -1.8770409638   -0.4136132894
C       -0.5480362938   -1.0931702866    3.9091910138
O       -6.6435813001    0.4262773215    0.0575397911
S       -0.3073241736    0.2023564657    2.6788275661
H       -4.9292566314    1.5680239571    1.5580306148
H       -3.6992390752   -2.2806161378    0.0366221755
H       -2.7342594654    1.8521338407    2.6085050636
H       -1.5026704528   -1.9712603355    1.0596570068
H        0.7257027541    2.2662927021    3.2752760357
H       -0.8893180995    1.9828341096    4.1717249266
H        1.8089243403    0.4048360631    1.6115370724
H        0.8481307278   -1.0873741210    1.0243313027
H       -6.1083583278   -2.6363357818    0.3504381166
H       -5.7537824764   -2.1310280677   -1.3289090083
H       -7.3663311586   -1.8623139176   -0.6326004158
H        0.3301228967   -1.1200853269    4.5573483690
H       -1.4342040716   -0.8646015692    4.5042010685
H       -0.6632905085   -2.0565874058    3.4113512956
27   

C       -4.2157889347    0.7549009496    1.4525399994
C       -3.5019315319   -1.3574016490    0.5359401149
C       -2.9774776203    0.9123161551    2.0764038451
C       -2.2512567681   -1.1902736897    1.1468414825
C       -4.5035223185   -0.3835481669    0.6811245663
C       -1.9788907880   -0.0593325172    1.9358612508
C       -0.2057961784    1.6155403779    3.5378809860
C        0.9116018138   -0.1767287792    1.6893446608
C       -5.8368665386   -0.5055728006    0.0008454661
C       -6.3846560537   -1.8965271660   -0.2626681008
C       -0.5756179038   -1.1467654928    3.8886395259
O       -6.5558349852    0.4713965388   -0.1657166123
S       -0.3391630133    0.1920403762    2.7047357245
H       -4.9654236980    1.5326560986    1.5636302177
H       -3.6689263999   -2.2406563460   -0.0703376173
H       -2.7878122921    1.8104567552    2.6569216241
H       -1.4821854764   -1.9414883206    0.9961011624
H        0.6580703528    2.2480177197    3.3836048648
H       -0.9648334383    1.9140749656    4.2478355299
H        1.7877414336    0.4580145322    1.6730648928
H        0.8544824380   -1.0254093350    1.0227510932
H       -6.1614003387   -2.5567597378    0.5795898930
H       -5.9421364629   -2.3031126667   -1.1755770018
H       -7.4702237888   -1.8478067580   -0.3881019859
H        0.2954550306   -1.1831609874    4.5458330893
H       -1.4715986393   -0.9501854464    4.4803389462
H       -0.6716118377   -2.0945456215    3.3577828401
27   

C       -4.2040240112    0.7715269460    1.4036334908
C       -3.4455602006   -1.3090920752    0.4516645659
C       -2.9792651203    0.9299613787    2.0538533184
C       -2.2080220227   -1.1409097986    1.0882327608
C       -4.4628448900   -0.3540081309    0.6051976206
C       -1.9653605196   -0.0256345323    1.9091218137
C       -0.2484186005    1.6282204527    3.5923398406
C        0.9305813016   -0.0807645716    1.7040502171
C       -5.7763609643   -0.4697080041   -0.1167952431
C       -6.4578904304   -1.8245601312   -0.1369137747
C       -0.5686597371   -1.1500459022    3.8476557577
O       -6.3977830342    0.5278013619   -0.4592258875
S       -0.3422571833    0.2308018129    2.7110044431
H       -4.9653308047    1.5381616758    1.5120230869
H       -3.5972785402   -2.1759825576   -0.1820302764
H       -2.8107985157    1.8176550323    2.6565798113
H       -1.4259582260   -1.8773432341    0.9316293895
H        0.6060362388    2.2807624849    3.4731658436
H       -1.0242900501    1.8896651855    4.2987031349
H        1.7952959632    0.5693718696    1.7234127590
H        0.8984896408   -0.9063045747    1.0073661113
H       -6.3133920066   -2.3313443247    0.8208995157
H       -6.0415054676   -2.4379889341   -0.9396826142
H       -7.5306805061   -1.6975328346   -0.3083718572
H        0.2935812697   -1.1904150291    4.5161779425
H       -1.4767335618   -0.9904172665    4.4319457602
H       -0.6375885025   -2.0819146707    3.2853819189
27   

C       -4.1848954444    0.7088768143    1.3707208000
C       -3.3570585118   -1.3266086806    0.3753639737
C       -2.9761748950    0.8780649773    2.0482333210
C       -2.1359323515   -1.1468139615    1.0395631844
C       -4.3983977144   -0.4013977464    0.5408214817
C       -1.9366918465   -0.0496437715    1.8966402987
C       -0.2924214367    1.5935913517    3.6616711356
C        0.9641477849   -0.0292253180    1.7475169871
C       -5.6904743889   -0.5369377405   -0.2206793346
C       -6.4898002691   -1.8063875157   -0.0059985335
C       -0.5487151935   -1.1971239439    3.8279322322
O       -6.2126975439    0.4327768539   -0.7537841841
S       -0.3355520354    0.2220467607    2.7367959495
H       -4.9672256502    1.4537208607    1.4796108917
H       -3.4806006869   -2.1761814943   -0.2875098183
H       -2.8392949113    1.7528784803    2.6772165745
H       -1.3328805363   -1.8588221215    0.8763646646
H        0.5492208607    2.2682640357    3.5806172836
H       -1.0887125198    1.8160451423    4.3585715072
H        1.8134496519    0.6386936577    1.8053420344
H        0.9647484735   -0.8325833018    1.0246254093
H       -6.4253036822   -2.1165269639    1.0402990740
H       -6.0995287462   -2.6029571570   -0.6440346746
H       -7.5397764661   -1.6317521266   -0.2576995081
H        0.3016528972   -1.2363872141    4.5115592034
H       -1.4712360522   -1.0771739628    4.3988934923
H       -0.5837762247   -2.1132401123    3.2373333679
27   

C       -4.1889169702    0.6731005373    1.3285781181
C       -3.3027936965   -1.3228581968    0.3001728804
C       -2.9933113802    0.8520143221    2.0271620405
C       -2.0950266172   -1.1320409109    0.9850528824
C       -4.3627136529   -0.4216210022    0.4710180611
C       -1.9317951941   -0.0502292653    1.8694632453
C       -0.3537517021    1.5774942153    3.7079502962
C        0.9695628377    0.0525022790    1.7590522451
C       -5.6446736539   -0.5849912032   -0.3096826779
C       -6.5731713647   -1.6943565590    0.1375361557
C       -0.5342634409   -1.2223519748    3.7813822418
O       -6.0405275600    0.2881258915   -1.0691642848
S       -0.3486437880    0.2364383054    2.7383869411
H       -4.9893595992    1.3972869905    1.4423451670
H       -3.4031203479   -2.1596824182   -0.3827427015
H       -2.8832747523    1.7145644221    2.6779982510
H       -1.2748549984   -1.8231255401    0.8171838841
H        0.4711357067    2.2756943738    3.6610297957
H       -1.1648786699    1.7562850967    4.4002716829
H        1.8007866860    0.7390440259    1.8511216975
H        0.9992791063   -0.7246641465    1.0086035003
H       -6.5845403815   -1.7550224144    1.2289904071
H       -6.2339895427   -2.6486156963   -0.2727810426
H       -7.5887799629   -1.4949248365   -0.2160448964
H        0.3085304829   -1.2591169272    4.4744783538
H       -1.4667263299   -1.1470860135    4.3437102423
H       -0.5352394836   -2.1199113993    3.1619601422
27   

C       -4.2082944852    0.6010300504    1.2989026034
C       -3.2460152111   -1.3239299654    0.2012285185
C       -3.0242381235    0.7910690249    2.0146642346
C       -2.0513042340   -1.1209222683    0.9046792524
C       -4.3294766277   -0.4541858033    0.3850354507
C       -1.9309795301   -0.0676185374    1.8299160689
C       -0.4193187663    1.5464475788    3.7343777384
C        0.9679255659    0.1183107300    1.7565915039
C       -5.6149615507   -0.6744051349   -0.3797598735
C       -6.6451603233   -1.5605455924    0.2877461745
C       -0.5229363982   -1.2584879556    3.7212760789
O       -5.7669413146   -0.2659200893   -1.5220059576
S       -0.3656259535    0.2358816108    2.7250802255
H       -5.0361049635    1.2866129452    1.4466375091
H       -3.3206354864   -2.1402936700   -0.5096775040
H       -2.9488847413    1.6268772380    2.7041610200
H       -1.2093482372   -1.7811268200    0.7210916496
H        0.3857954894    2.2687140619    3.7170453769
H       -1.2414501618    1.6809965460    4.4236506453
H        1.7786259369    0.8243744354    1.8788431194
H        1.0279144890   -0.6351601495    0.9840438392
H       -7.1077232374   -1.0255559834    1.1210262932
H       -6.1687592755   -2.4695823108    0.6640650629
H       -7.4197433577   -1.8377293138   -0.4330129850
H        0.3139802307   -1.2949160142    4.4214753296
H       -1.4622933374   -1.2247194600    4.2760593396
H       -0.4948183891   -2.1362595172    3.0746546872
27   

C       -4.2111047559    0.5283071652    1.3015257929
C       -3.1639766785   -1.3300375306    0.1640888181
C       -3.0404536264    0.7458016258    2.0317860139
C       -1.9839278788   -1.0983363336    0.8827059116
C       -4.2782694235   -0.5000400064    0.3514471683
C       -1.9122166836   -0.0636664718    1.8338922371
C       -0.4840550914    1.5541352062    3.7978042570
C        0.9770517622    0.2409527326    1.7940432439
C       -5.5526347132   -0.7931453204   -0.4023735752
C       -6.6777805187   -1.4133370126    0.4002738803
C       -0.4731197700   -1.2516451676    3.7047375874
O       -5.5775983316   -0.8108469371   -1.6251068661
S       -0.3680982558    0.2758743848    2.7527599074
H       -5.0689643366    1.1706455156    1.4695105710
H       -3.2066869622   -2.1357044893   -0.5620678861
H       -3.0041792954    1.5627553015    2.7465846931
H       -1.1170832538   -1.7235783448    0.6927407826
H        0.2906140693    2.3091017069    3.8079014224
H       -1.3158878808    1.6345432289    4.4838606972
H        1.7570756300    0.9756872979    1.9436976379
H        1.0742337725   -0.4873669716    1.0013641530
H       -7.2250189582   -0.6325990991    0.9341706848
H       -6.2734698321   -2.1277493120    1.1222393598
H       -7.3665260532   -1.9377306954   -0.2681845824
H        0.3582050043   -1.2741673194    4.4121467682
H       -1.4180556892   -1.2722034326    4.2506091728
H       -0.4031779770   -2.1087593889    3.0339902671
27   

C       -4.2214706608    0.4385755445    1.3292146916
C       -3.1124549210   -1.3531654813    0.1398591527
C       -3.0551176170    0.6788044707    2.0595838231
C       -1.9386282892   -1.0973591592    0.8599646997
C       -4.2548099593   -0.5660383003    0.3514405747
C       -1.8994555710   -0.0843917260    1.8361297220
C       -0.5179543058    1.5383718512    3.8281828472
C        0.9769956047    0.3175287547    1.7913178382
C       -5.5109527480   -0.9022391278   -0.4071604098
C       -6.7359247782   -1.2563795636    0.4126320418
C       -0.4141418647   -1.2640688555    3.6755766501
O       -5.4752823613   -1.1663495293   -1.6015570887
S       -0.3635300388    0.2863096813    2.7566600636
H       -5.1001039623    1.0452377673    1.5201014175
H       -3.1297040632   -2.1437800585   -0.6040876190
H       -3.0441292343    1.4774106156    2.7956217903
H       -1.0515170633   -1.6874528666    0.6519825525
H        0.2296373483    2.3199511435    3.8490717724
H       -1.3472948076    1.5751029426    4.5209351680
H        1.7313317875    1.0764632538    1.9514301001
H        1.0960394885   -0.3921055445    0.9847716953
H       -7.2494762938   -0.3438530669    0.7250091870
H       -6.4423242590   -1.8272000888    1.2975555067
H       -7.4215559017   -1.8626210167   -0.1862366035
H        0.4212405144   -1.2751630486    4.3784589726
H       -1.3550212365   -1.3270971783    4.2251911207
H       -0.3203698799   -2.1037578461    2.9859208669
27   

C       -4.2961967715    0.3515720824    1.3414540602
C       -3.1272404915   -1.3842180745    0.1243676548
C       -3.1326011018    0.6314319752    2.0622213872
C       -1.9577042608   -1.0869136488    0.8350680625
C       -4.3010067146   -0.6484120983    0.3566431149
C       -1.9499362977   -0.0832783754    1.8212252233
C       -0.6203707365    1.5624422391    3.8290697409
C        0.9055511031    0.4437358602    1.7570752516
C       -5.5420513108   -1.0362612518   -0.3973081660
C       -6.8409699635   -1.1209980262    0.3814338932
C       -0.3964271008   -1.2301281033    3.6259339069
O       -5.4769295350   -1.5055461607   -1.5262511936
S       -0.4223319628    0.3368576908    2.7343359098
H       -5.1935127351    0.9241189564    1.5492035152
H       -3.1166151331   -2.1704955085   -0.6245011742
H       -3.1456620412    1.4229774652    2.8058366501
H       -1.0498421475   -1.6390323563    0.6128605433
H        0.0925586534    2.3755413889    3.8569067470
H       -1.4432209032    1.5502882521    4.5304026043
H        1.6276524253    1.2320876241    1.9234919027
H        1.0472129427   -0.2462203298    0.9371997126
H       -7.2846960533   -0.1265203273    0.4727404543
H       -6.6555344389   -1.5298815171    1.3782359553
H       -7.5442996686   -1.7758725848   -0.1409136154
H        0.4443773032   -1.2163825811    4.3222663085
H       -1.3290256391   -1.3447610154    4.1813122863
H       -0.2710847929   -2.0527786786    2.9209195681
27   

C       -4.2787172058    0.2829728339    1.3649975708
C       -3.0656867710   -1.3854433415    0.0992538722
C       -3.1222195231    0.5729134217    2.0929159607
C       -1.9038191546   -1.0768830139    0.8177315999
C       -4.2621715046   -0.6938405679    0.3547484390
C       -1.9217326575   -0.1029665047    1.8324720674
C       -0.6370837887    1.5197714463    3.8864903804
C        0.9174197871    0.5027756135    1.7836518573
C       -5.4874695608   -1.0830761863   -0.4210336051
C       -6.8421701634   -0.9075195046    0.2405136241
C       -0.3378419753   -1.2600181442    3.6039019427
O       -5.4039909663   -1.6948675371   -1.4786719870
S       -0.4056357413    0.3309610526    2.7581902255
H       -5.1855598489    0.8324444191    1.5917718825
H       -3.0296818783   -2.1498090077   -0.6712425751
H       -3.1552760334    1.3432199919    2.8579191321
H       -0.9816524925   -1.5975118510    0.5790383816
H        0.0515495582    2.3525656684    3.9355484788
H       -1.4572887516    1.4637535656    4.5888138949
H        1.6160506980    1.3075035518    1.9705903368
H        1.0787651388   -0.1612076833    0.9461640890
H       -7.1632401645    0.1339834582    0.1582536770
H       -6.7879445061   -1.1927438893    1.2944950059
H       -7.5804605371   -1.5447204667   -0.2549105199
H        0.5021899192   -1.2441333838    4.3011150080
H       -1.2671288903   -1.4157034337    4.1548549971
H       -0.1906229450   -2.0582033314    2.8753728028
27   

C       -4.2962998631    0.1854872015    1.4149451757
C       -3.0580998122   -1.4288913767    0.1066182327
C       -3.1352498017    0.5018147191    2.1242886730
C       -1.8925473055   -1.0932544271    0.8066075711
C       -4.2734160238   -0.7826666104    0.3939489345
C       -1.9203079667   -0.1332971520    1.8335326149
C       -0.6487545563    1.5038434029    3.8829697274
C        0.8951051782    0.5650820325    1.7364930231
C       -5.4960897906   -1.1869897160   -0.3779003455
C       -6.8562215643   -0.7616630620    0.1442899676
C       -0.2655895800   -1.2622577582    3.5577460928
O       -5.4240135882   -1.9285870189   -1.3500816841
S       -0.4007920757    0.3367390919    2.7356351629
H       -5.2095065492    0.7107210824    1.6702959524
H       -3.0095133711   -2.1816664820   -0.6745145276
H       -3.1768375439    1.2622482414    2.8987109860
H       -0.9596125308   -1.5817850027    0.5431930317
H        0.0112500138    2.3597592058    3.9273584566
H       -1.4508249168    1.4108059583    4.6021323057
H        1.5688565764    1.3919202796    1.9181985503
H        1.0624325726   -0.0842816525    0.8887857551
H       -6.9989702047    0.3098681876   -0.0178185562
H       -6.9397970122   -0.9890917471    1.2102720146
H       -7.6419540438   -1.3049631345   -0.3887248806
H        0.5870561900   -1.2286589197    4.2388184439
H       -1.1784574913   -1.4550501556    4.1242227954
H       -0.1074891082   -2.0456167149    2.8155272105
27   

C       -4.3245494041    0.0955225543    1.5115949235
C       -3.0507774419   -1.4597438246    0.1661995464
C       -3.1613640155    0.4574044244    2.1949847811
C       -1.8842512977   -1.0781732947    0.8406438674
C       -4.2860644653   -0.8679406952    0.4859563786
C       -1.9280760423   -0.1243598842    1.8725825052
C       -0.6794617994    1.5609077828    3.8959882424
C        0.8525860761    0.6891755708    1.7130502150
C       -5.5055591273   -1.3108677551   -0.2699716271
C       -6.8432210348   -0.6783921397    0.0675495393
C       -0.1909592454   -1.1878526701    3.5560879609
O       -5.4431338101   -2.1685657628   -1.1423024350
S       -0.4090796954    0.4057999749    2.7415523199
H       -5.2515257318    0.5799839035    1.7956654386
H       -2.9876164647   -2.2059587228   -0.6201589569
H       -3.2167807840    1.2116513013    2.9745664096
H       -0.9380251294   -1.5258108280    0.5530787249
H       -0.0562833335    2.4446180601    3.9254760454
H       -1.4590184434    1.4330016869    4.6343137266
H        1.4938786068    1.5445322457    1.8795866585
H        1.0288909490    0.0467066590    0.8619311887
H       -6.8021411244    0.4001163801   -0.1061346119
H       -7.0993662972   -0.8766886036    1.1115483347
H       -7.6236355370   -1.1043588874   -0.5697985914
H        0.6746338759   -1.1211116114    4.2181080432
H       -1.0824423375   -1.4184589610    4.1421814068
H       -0.0181997459   -1.9628251665    2.8083418844
