15   

C        2.3735518359   -0.8682187565   -1.0115462200
C        1.3057966043   -1.3292230266   -0.2891817577
C        3.4829494026   -1.6362979520   -1.7090710822
C       -0.8572757385   -0.4581749740   -1.1956065378
C       -0.0969922014   -1.7006085788   -0.7412463602
H        2.7543781081    0.0793886146   -0.6454401926
H        1.2942995145   -0.9854514361    0.7397269907
H        4.3819951134   -1.0183538788   -1.7919965996
H        3.1610985424   -1.9269213519   -2.7132620544
H        3.7274272869   -2.5397581804   -1.1427158263
H       -0.3416440799    0.0202416379   -2.0339615713
H       -0.9343503372    0.2587935014   -0.3719092797
H       -1.8673366666   -0.7332213448   -1.5142188742
H       -0.6345855632   -2.1731960439    0.0870450364
H       -0.0376885482   -2.4217854493   -1.5626706037
15   

C        2.4056407375   -0.8120111949   -0.9165608482
C        1.3162227935   -1.2303407743   -0.2171538569
C        3.3824520756   -1.6530253005   -1.7135338488
C       -0.8744014933   -0.4707608566   -1.1469907588
C       -0.0284022049   -1.6789077656   -0.7560494253
H        2.9116270420    0.0285604418   -0.4534313303
H        1.2399752201   -0.8349677271    0.7902960962
H        3.3330591479   -1.3801547848   -2.7716405910
H        3.1386513305   -2.7149616021   -1.6127301056
H        4.4029973665   -1.4916190311   -1.3537926126
H       -0.3686623925    0.1133610549   -1.9221845407
H       -1.0448018441    0.1698869794   -0.2759063916
H       -1.8436361432   -0.8014911607   -1.5324810603
H       -0.5521469172   -2.2623457766    0.0078638766
H        0.1227306838   -2.3215888140   -1.6293567754
15   

C        2.4586566581   -0.7799995848   -0.8202286628
C        1.3375753500   -1.1406327736   -0.1543898557
C        3.3012202945   -1.6572509270   -1.7196575644
C       -0.8889105442   -0.4954331573   -1.0774649075
C        0.0474580380   -1.6562206776   -0.7552464257
H        3.0362802626   -0.0003308041   -0.3350071207
H        1.2096868169   -0.6934087325    0.8257682394
H        3.2221660786   -1.3146687994   -2.7554959107
H        2.9619197038   -2.6961962619   -1.6657630118
H        4.3504395187   -1.6153340497   -1.4125379760
H       -0.4183758768    0.1826069596   -1.7965228895
H       -1.1282341280    0.0641054936   -0.1677152258
H       -1.8196442390   -0.8744924626   -1.5104608816
H       -0.4374265517   -2.3381109142   -0.0495005820
H        0.2642412316   -2.2152455430   -1.6712688622
15   

C        2.5138212965   -0.7852841050   -0.7248321681
C        1.3526283772   -1.0710969314   -0.1035017083
C        3.2401527660   -1.6516475141   -1.7252620886
C       -0.8787263330   -0.5176977570   -1.0639875755
C        0.1027505786   -1.6384091936   -0.7347261905
H        3.1500035707   -0.0738026375   -0.2091062651
H        1.1980525066   -0.5966408976    0.8598410574
H        3.1347074895   -1.2309006362   -2.7294965377
H        2.8315542300   -2.6666930249   -1.7230052443
H        4.3037834346   -1.7044074120   -1.4746330256
H       -0.4253309872    0.1874119357   -1.7679334843
H       -1.1603716312    0.0218898623   -0.1543555992
H       -1.7829099855   -0.9337915379   -1.5187366631
H       -0.3641115714   -2.3482202338   -0.0445575546
H        0.3576824323   -2.1781570115   -1.6522577463
15   

C        2.5561628544   -0.8140512040   -0.6487534651
C        1.3571190314   -1.0128242777   -0.0739639107
C        3.1924969110   -1.6343942060   -1.7421561437
C       -0.8451437567   -0.5312427251   -1.1269044103
C        0.1331565492   -1.6246623341   -0.7090658792
H        3.2375442620   -0.1717060362   -0.1010539570
H        1.1934786741   -0.5263058884    0.8817975652
H        3.0576142313   -1.1385495780   -2.7078517273
H        2.7450401624   -2.6314975363   -1.7895960216
H        4.2637436934   -1.7466653481   -1.5507116622
H       -0.3769482442    0.1369008651   -1.8566823935
H       -1.1545777699    0.0559385853   -0.2565836926
H       -1.7343541110   -0.9786751479   -1.5814799495
H       -0.3502899762   -2.2957723501    0.0078912055
H        0.4119843242   -2.2158483523   -1.5865601386
15   

C        2.5950509397   -0.8605971049   -0.5973056442
C        1.3552621282   -0.9499445984   -0.0894228483
C        3.1754760651   -1.6369920841   -1.7499758663
C       -0.8785909592   -0.5409449875   -1.1028336829
C        0.1460719659   -1.6006631993   -0.7101709436
H        3.3039294998   -0.2763225038   -0.0202594614
H        1.1797309988   -0.4213659417    0.8415893283
H        3.0192422333   -1.0910964361   -2.6850022960
H        2.7075923095   -2.6224047060   -1.8301918186
H        4.2499417500   -1.7792605581   -1.6013238148
H       -0.4473337010    0.1486493720   -1.8354653542
H       -1.1950378454    0.0286168633   -0.2234368232
H       -1.7581094139   -1.0176423511   -1.5464566850
H       -0.3009468875   -2.2937547415    0.0095014075
H        0.4283746233   -2.1749065305   -1.5974148432
15   

C        2.6215789214   -0.9209637067   -0.5384793496
C        1.3553191364   -0.8997938485   -0.0946607957
C        3.1620882680   -1.6334934833   -1.7499135504
C       -0.8295596020   -0.5455148271   -1.2309724987
C        0.1518582677   -1.5814066917   -0.6922834593
H        3.3364029739   -0.3266789433    0.0207191074
H        1.1745453036   -0.3306695297    0.8110715109
H        4.0926208101   -1.1607748750   -2.0777336529
H        2.4456443462   -1.5902333321   -2.5754349514
H        3.3656877175   -2.6809177689   -1.5086766321
H       -0.3559811474    0.0545748731   -2.0142412441
H       -1.1605336470    0.1189306102   -0.4265232948
H       -1.7063405985   -1.0458008491   -1.6535802971
H       -0.3411642789   -2.1805510168    0.0798069222
H        0.4504920419   -2.2598683070   -1.4969429696
15   

C        2.6382275601   -0.9874289253   -0.4970521143
C        1.3537414163   -0.8493666195   -0.1314755761
C        3.1723854545   -1.6360527949   -1.7471626238
C       -0.8576543870   -0.5480902412   -1.2345696095
C        0.1500260188   -1.5587287161   -0.6965001268
H        3.3644631090   -0.4463218885    0.1001599554
H        1.1705985220   -0.2399310809    0.7471717389
H        4.1017327733   -1.1472969877   -2.0542393620
H        2.4520845108   -1.5501041213   -2.5660789652
H        3.3761981143   -2.6947380346   -1.5617594196
H       -0.4083372145    0.0453754082   -2.0369258345
H       -1.1848147935    0.1250658637   -0.4358446539
H       -1.7337353389   -1.0697624907   -1.6320919792
H       -0.3202227118   -2.1512789889    0.0946611750
H        0.4453764085   -2.2465273393   -1.4945503335
15   

C        2.6493203642   -1.0582482440   -0.4696822067
C        1.3591320631   -0.8036372281   -0.1897052184
C        3.2062787545   -1.6417884333   -1.7433231483
C       -0.9065922199   -0.5466122801   -1.1970129405
C        0.1462692589   -1.5359306173   -0.7078342462
H        3.3754957652   -0.5662047054    0.1686575534
H        1.1769303589   -0.1409651273    0.6497675964
H        4.1432766585   -1.1419009791   -2.0060977863
H        2.5010098034   -1.5098712832   -2.5693435726
H        3.4018890131   -2.7099298674   -1.6109994129
H       -0.5054155587    0.0605497816   -2.0145262515
H       -1.2157604034    0.1151623239   -0.3818537057
H       -1.7860488198   -1.0870867081   -1.5605716078
H       -0.2763601245   -2.1440059336    0.0982894588
H        0.4252729932   -2.2104873203   -1.5231648803
15   

C        2.6547186892   -1.1314100546   -0.4575390815
C        1.3706826846   -0.7701340745   -0.2670733459
C        3.2662222370   -1.6460291784   -1.7389919245
C       -0.9574211230   -0.5447883402   -1.1445977804
C        0.1383665772   -1.5181182867   -0.7216335366
H        3.3674171126   -0.6840528094    0.2272214151
H        1.1955287729   -0.0467815015    0.5223648446
H        4.2125885365   -1.1337341949   -1.9361598509
H        2.5929345127   -1.4701958589   -2.5834796834
H        3.4567610824   -2.7200969946   -1.6569964520
H       -0.6126173219    0.0741324530   -1.9788947895
H       -1.2332815156    0.1064774679   -0.3093665562
H       -1.8456316017   -1.0989620146   -1.4635536856
H       -0.2273300957   -2.1412656267    0.1006733645
H        0.3863828171   -2.1783238389   -1.5587848629
15   

C        2.6322763615   -1.2128152787   -0.4682338122
C        1.3606485415   -0.7654941447   -0.3585020237
C        3.3354913951   -1.6467012173   -1.7357276380
C       -1.0253483280   -0.5335293181   -1.0825670249
C        0.0932923599   -1.5084043168   -0.7276899144
H        3.3149258659   -0.8077277662    0.2713285234
H        1.2062401988    0.0171456504    0.3769400627
H        4.2890183797   -1.1200432400   -1.8375923817
H        2.7170081734   -1.4232852106   -2.6104077054
H        3.5276323344   -2.7231776516   -1.7063575977
H       -0.7334464092    0.0809989530   -1.9400197065
H       -1.2456623930    0.1217711537   -0.2341771453
H       -1.9334359133   -1.0866298590   -1.3418450754
H       -0.2188514119   -2.1308164006    0.1169625255
H        0.2875119709   -2.1682161177   -1.5794517489
15   

C        2.6108296485   -1.2923018076   -0.5147432211
C        1.3471520620   -0.7909623224   -0.4775920429
C        3.4428644883   -1.6432349386   -1.7320459790
C       -1.0947076301   -0.5178060696   -0.9959432601
C        0.0363365049   -1.5098985856   -0.7402647845
H        3.2412705167   -0.9162566897    0.2842179156
H        1.2234347806    0.0603582207    0.1837135061
H        4.3928449921   -1.1009312912   -1.7110592781
H        2.9064316482   -1.3760158923   -2.6475692182
H        3.6489922600   -2.7173864336   -1.7464010805
H       -0.8666432281    0.0969746944   -1.8724237671
H       -1.2350725193    0.1360305945   -0.1297004883
H       -2.0286942097   -1.0572548801   -1.1814663606
H       -0.2115265943   -2.1367518526    0.1222303999
H        0.1494371266   -2.1635617572   -1.6111683693
15   

C        2.5863756649   -1.3695261418   -0.5843765006
C        1.3240329274   -0.8417411049   -0.6107319495
C        3.5568764243   -1.6376178147   -1.7219315120
C       -1.1540896736   -0.4992600448   -0.9074772923
C       -0.0303147194   -1.5212723827   -0.7560024768
H        3.1357744680   -1.1071059875    0.3136610742
H        1.2375860117    0.0725267948   -0.0328625366
H        3.4472911438   -0.8730550567   -2.4966707772
H        3.3529498493   -2.6174067148   -2.1633777717
H        4.5879384349   -1.6233668222   -1.3562319826
H       -0.9884402240    0.1138178423   -1.7990951514
H       -1.2012544171    0.1535621922   -0.0304982101
H       -2.1142705454   -1.0139339223   -1.0118024253
H       -0.2163159260   -2.1498864323    0.1206436939
H       -0.0133244021   -2.1696646797   -1.6378656903
