42

C      2.64514   -2.27746    1.54722
C      2.15298   -1.42778    0.83290
C      4.06184   -5.44000    3.99180
C     -1.77892   -4.31588   -0.25825
C      3.20352   -5.70546    2.91828
C      4.46110   -4.12423    4.25331
C     -2.19176   -3.11021   -0.83577
C     -1.02109   -4.28958    0.91615
C      2.74335   -4.66477    2.11149
C      4.00651   -3.07745    3.45047
C     -1.84564   -1.89026   -0.24656
C     -0.66941   -3.06857    1.49780
C      3.14060   -3.33710    2.37075
C     -1.06672   -1.85199    0.92427
C     -1.68446    1.38152    0.49261
C     -1.84338    0.44883    1.68787
C     -0.66612   -0.54322    1.58326
C      0.39321    0.30632    0.81075
C      0.15068    2.08242   -1.00830
C      1.47264   -0.43898   -0.01859
N     -0.41726    1.20309   -0.00336
O     -2.52193    2.16601    0.05893
O      1.00199   -0.99298   -1.24156
H      4.41872   -6.25281    4.61867
H     -2.05052   -5.26344   -0.71592
H      2.89447   -6.72639    2.70933
H      5.12893   -3.91471    5.08474
H     -2.78599   -3.11676   -1.74578
H     -0.70276   -5.21864    1.38245
H      2.08011   -4.86289    1.27478
H      4.31533   -2.05538    3.65001
H     -2.17699   -0.96668   -0.71191
H     -0.07029   -3.06038    2.40390
H     -1.76864    1.06179    2.59351
H     -2.82643   -0.02395    1.68670
H     -0.25833   -0.77978    2.56751
H      0.96096    0.88727    1.55701
H      0.93770    2.71541   -0.57644
H     -0.65167    2.72202   -1.37928
H      0.56736    1.50053   -1.83461
H      2.20826    0.31024   -0.33023
H      0.34438   -1.67907   -1.03449
