19   

C        2.1795250854   -0.4383333911   -0.0012986801
C        0.8767747083   -0.3439911632    0.4708110228
C        3.1568237945   -1.0644901207    0.7739465762
C        0.5638366721   -0.8719682562    1.7215748739
C        3.8532348229   -3.0146532740    3.9606007013
C        6.1206021577   -2.6280140546    3.1966661984
C        2.8595678527   -1.6261686417    2.0394869149
C        1.5354982797   -1.5023338787    2.5111865296
C        3.9436541638   -2.2531196598    2.8176715337
N        5.2559536655   -2.0428233336    2.4045458545
O        1.1368876092   -1.9594661941    3.7344077655
S        5.4212643803   -3.5031508113    4.5445145706
H        2.4393135047   -0.0259331877   -0.9696616162
H        0.1135765288    0.1415141214   -0.1276560071
H        4.1619671156   -1.1164139577    0.3698860108
H       -0.4538891648   -0.7816238887    2.0802582937
H        2.9342423228   -3.3007744553    4.4493131595
H        7.1904387525   -2.5749365779    3.0319599990
H        0.2047224335   -1.7309609954    3.8880078061
19   

C        2.1680892231   -0.4846634039   -0.0226372327
C        0.8838514679   -0.3292344906    0.4868188804
C        3.1434907876   -1.1332138839    0.7370015458
C        0.5889610615   -0.8133245260    1.7608015401
C        3.8268191304   -3.1539078503    3.8514506478
C        6.1017611472   -2.4901973694    3.3349665325
C        2.8553042259   -1.6653321477    2.0135402712
C        1.5598704631   -1.4652098420    2.5330394600
C        3.9427949656   -2.2888855373    2.7904260251
N        5.2532108141   -1.9092502586    2.5217701331
O        1.2006232994   -1.8704474171    3.7873371447
S        5.3818809558   -3.5582747240    4.5266901893
H        2.4146132213   -0.1003914257   -1.0059098477
H        0.1224245711    0.1739046234   -0.0991994894
H        4.1399167283   -1.2332465033    0.3198568955
H       -0.4106580371   -0.6695588935    2.1515074314
H        2.8909073118   -3.5466818275    4.2225850140
H        7.1707905227   -2.3214113607    3.2784414682
H        0.2991608599   -1.5690206663    3.9902114248
19   

C        2.1499809891   -0.5160488629   -0.0408113494
C        0.8885881712   -0.3000248010    0.5061102807
C        3.1228891131   -1.1890591498    0.7012381899
C        0.6158182282   -0.7439402948    1.8006774878
C        3.8050704268   -3.2723090488    3.7353426053
C        6.0450532934   -2.3701437812    3.4964721873
C        2.8463203669   -1.6940259874    1.9875803346
C        1.5852664876   -1.4203775326    2.5526846005
C        3.9396097116   -2.3151981969    2.7622582456
N        5.2205586247   -1.7880727791    2.6590529346
O        1.2669930165   -1.7907302983    3.8292713244
S        5.3274642487   -3.6096256124    4.5135619757
H        2.3807434730   -0.1572725552   -1.0374397884
H        0.1293522276    0.2221935827   -0.0658809929
H        4.1085271543   -1.3326247569    0.2710277748
H       -0.3623318889   -0.5495212990    2.2225216567
H        2.8667254695   -3.7467233233    3.9888421450
H        7.0930516794   -2.1019506037    3.5619395682
H        0.3987897372   -1.4301936775    4.0756552977
19   

C        2.1379761442   -0.5377132148   -0.0506384141
C        0.9027726344   -0.2675399620    0.5337852389
C        3.1146109001   -1.2238465740    0.6750824911
C        0.6611419555   -0.6678490846    1.8495083690
C        3.8180498088   -3.3772156231    3.6008851033
C        5.9784751158   -2.2743797091    3.6863197551
C        2.8593909276   -1.6939537230    1.9760559761
C        1.6346546934   -1.3581410415    2.5827173849
C        3.9601996289   -2.3158469467    2.7465701108
N        5.1844305678   -1.6688644254    2.8359197104
O        1.3615558013   -1.6965532894    3.8786583230
S        5.2887227422   -3.6799172151    4.4853111589
H        2.3454009511   -0.2092665232   -1.0627287643
H        0.1408836026    0.2644596499   -0.0255139506
H        4.0848115917   -1.4064588436    0.2252622733
H       -0.2938206889   -0.4301761595    2.3012396207
H        2.8955137027   -3.9297697049    3.7190772498
H        6.9850926469   -1.9281637902    3.8896937728
H        0.5255268294   -1.2905915555    4.1622505252
19   

C        2.1174339795   -0.5802063277   -0.0791320539
C        0.9117613791   -0.2451700388    0.5352943585
C        3.0976020422   -1.2676495565    0.6413993902
C        0.7018039785   -0.5834524169    1.8744266703
C        3.8418786850   -3.4989185768    3.4035777679
C        5.8733155540   -2.2554121353    3.8797091977
C        2.8696401018   -1.6710326223    1.9676633929
C        1.6780546159   -1.2756505601    2.6013596980
C        3.9665434874   -2.3096999314    2.7380638445
N        5.1076812493   -1.5869788673    3.0506410465
O        1.4456074420   -1.5701701081    3.9156405146
S        5.2481934962   -3.8210415387    4.3811647074
H        2.2983317593   -0.3014309018   -1.1110186508
H        0.1477583234    0.2875320659   -0.0204384992
H        4.0455895231   -1.5027333878    0.1696135765
H       -0.2297244105   -0.2991061454    2.3475883748
H        2.9643996909   -4.1285376846    3.3430414956
H        6.8196023906   -1.8674136073    4.2381811641
H        0.6376814996   -1.1260929236    4.2219114151
19   

C        2.0043260546   -0.8159839238   -0.1401185542
C        0.8495761984   -0.3724793277    0.5052466228
C        3.0148976405   -1.4434021429    0.5936376598
C        0.7110735097   -0.5575301350    1.8839245071
C        4.0321881696   -3.6358548414    2.9977653033
C        5.8348866694   -2.3028898235    3.9459964883
C        2.8781835428   -1.6409143705    1.9766401346
C        1.7169939043   -1.1868164688    2.6268477622
C        3.9672859016   -2.2933378156    2.7492391525
N        4.9962522580   -1.5378159956    3.2890694381
O        1.5501149042   -1.3644995414    3.9714344744
S        5.4402642212   -4.0187786018    3.9514602055
H        2.1199628115   -0.6702093492   -1.2081418222
H        0.0642297431    0.1159813579   -0.0612948122
H        3.9168220427   -1.7769880474    0.0922074327
H       -0.1894780087   -0.2087185145    2.3736261329
H        3.2949167304   -4.3483297212    2.6531305158
H        6.7109152109   -1.9081297972    4.4472537048
H        0.7569913957   -0.8953283193    4.2779796690
19   

C        1.8487803598   -1.0876527718   -0.1534406795
C        0.7562848137   -0.5252962788    0.5058178896
C        2.8927296070   -1.6514042364    0.5848382405
C        0.7052980110   -0.5457580862    1.9019465886
C        4.3190263078   -3.5980931571    2.5739235540
C        5.8305034351   -2.2920712068    3.9582527578
C        2.8753465032   -1.6291669692    1.9902385441
C        1.7468023918   -1.1080356186    2.6498544149
C        3.9591757243   -2.2904790903    2.7581762694
N        4.8570645726   -1.5413047855    3.5026292095
O        1.6449483885   -1.1501499057    4.0118172364
S        5.7671036248   -3.9796467920    3.4659105057
H        1.8890371817   -1.0855559412   -1.2368210467
H       -0.0539295030   -0.0829074303   -0.0635634491
H        3.7383283082   -2.0887254250    0.0654346872
H       -0.1581759849   -0.1260304331    2.4026587980
H        3.7698373232   -4.2914986862    1.9514016307
H        6.6269127634   -1.8981789031    4.5787982767
H        0.8684112530   -0.6492691840    4.3093106627
19   

C        1.7748663085   -1.1814902369   -0.1375718132
C        0.7275192216   -0.5464008091    0.5265124522
C        2.8253794155   -1.7412818211    0.5937860533
C        0.7270169595   -0.4926064203    1.9217810225
C        4.4708502003   -3.5256060505    2.4198510808
C        5.7337629855   -2.2999601413    4.0937981381
C        2.8662811032   -1.6427521757    1.9977907942
C        1.7750061765   -1.0507923570    2.6642081135
C        3.9567111300   -2.2996638409    2.7525972833
N        4.7180897646   -1.5891791959    3.6682852435
O        1.7044383426   -1.0230318954    4.0285247823
S        5.8872187829   -3.8932880457    3.3667998114
H        1.7755058935   -1.2384431497   -1.2202204678
H       -0.0878237633   -0.1064519883   -0.0374181677
H        3.6339931378   -2.2305609789    0.0623816463
H       -0.1048462783   -0.0193311446    2.4282181247
H        4.0458656607   -4.1746288064    1.6663200352
H        6.4383477242   -1.9263160993    4.8275665228
H        0.9541985442   -0.4805121669    4.3192472219
19   

C        1.7178082294   -1.2482570286   -0.1248113853
C        0.7124774841   -0.5490955706    0.5367582539
C        2.7670545426   -1.8142361724    0.6027812620
C        0.7536553713   -0.4359559888    1.9267384594
C        4.5835972458   -3.4592055770    2.3223457538
C        5.6229448674   -2.3582318717    4.2203790362
C        2.8506293493   -1.6674839402    2.0033414641
C        1.7998531746   -1.0001818740    2.6679779281
C        3.9562470365   -2.3126776686    2.7405260045
N        4.5880996783   -1.6747531811    3.7975188343
O        1.7494682826   -0.9070795322    4.0302600578
S        5.9545074298   -3.8365233242    3.3305324409
H        1.6881647623   -1.3488539983   -1.2038929643
H       -0.1021525593   -0.1040709596   -0.0242244960
H        3.5421076999   -2.3441630423    0.0613687296
H       -0.0468982112    0.0893226693    2.4323701571
H        4.2622382161   -4.0568010817    1.4805825946
H        6.2382309489   -2.0289371170    5.0494938333
H        1.0196192220   -0.3305841634    4.3059757080
19   

C        1.6677844369   -1.3008910511   -0.1008852949
C        0.6964569075   -0.5540152569    0.5555539613
C        2.7189234414   -1.8666037140    0.6232573234
C        0.7763312058   -0.3896115942    1.9373376535
C        4.6988422758   -3.3685628850    2.2519927761
C        5.5232948311   -2.4342767251    4.3343682746
C        2.8386540050   -1.6842870509    2.0199404236
C        1.8242885417   -0.9527560100    2.6779826754
C        3.9683649781   -2.3099472105    2.7363910260
N        4.4733464975   -1.7747401751    3.9121727520
O        1.7935917209   -0.7909751864    4.0343250527
S        6.0236601552   -3.7702827844    3.3112776730
H        1.6116939172   -1.4378191765   -1.1749293398
H       -0.1201495520   -0.1090261201   -0.0025959542
H        3.4644127712   -2.4250784348    0.0707928081
H        0.0028401879    0.1780316943    2.4393129196
H        4.4779489864   -3.9035624866    1.3395117754
H        6.0502741424   -2.1692692213    5.2434842784
H        1.0706985606   -0.1980209016    4.2918095018
19   

C        1.6304039196   -1.3502592378   -0.0840631558
C        0.6877779495   -0.5622505136    0.5623283866
C        2.6839807659   -1.9111840440    0.6394931117
C        0.8028907202   -0.3471906302    1.9332303361
C        4.8107110950   -3.2649825889    2.1942386573
C        5.4135980867   -2.5597892301    4.4347303207
C        2.8346265341   -1.6949446439    2.0310778532
C        1.8538211163   -0.9038042587    2.6755777406
C        3.9803939545   -2.3091725007    2.7348592227
N        4.3552206230   -1.9157162088    4.0113073160
O        1.8504490490   -0.6609486982    4.0199775538
S        6.0803735215   -3.7183661980    3.2994404739
H        1.5501004800   -1.5242523395   -1.1512051321
H       -0.1316106741   -0.1214860737    0.0048784379
H        3.3980068154   -2.5012831878    0.0805808875
H        0.0546559717    0.2603366828    2.4267634295
H        4.7003724459   -3.7079806049    1.2157965989
H        5.8481234144   -2.3869911101    5.4123519119
H        1.1222939816   -0.0671869991    4.2592976565
19   

C        1.6188615797   -1.3746330955   -0.0698487787
C        0.6996464920   -0.5524829934    0.5659253196
C        2.6724860139   -1.9333613868    0.6549624803
C        0.8426775244   -0.2952740497    1.9262787159
C        4.9221165643   -3.1373266425    2.1610429582
C        5.2636695321   -2.7553606168    4.5308272903
C        2.8437008402   -1.6895366984    2.0406820030
C        1.8946340882   -0.8476209916    2.6708981702
C        3.9840958599   -2.3153326925    2.7462179541
N        4.2054504137   -2.1154235975    4.1015566806
O        1.9316019496   -0.5238384274    3.9975755189
S        6.1142672574   -3.6827026704    3.3103152058
H        1.5172075178   -1.5818936913   -1.1292093171
H       -0.1213677195   -0.1152804676    0.0080465024
H        3.3540114439   -2.5646014587    0.1016476130
H        0.1179779478    0.3481252602    2.4093834414
H        4.9447976375   -3.4274911214    1.1218060986
H        5.5897802641   -2.7150568529    5.5635146007
H        1.1942493371    0.0616211988    4.2286391746
19   

C        1.6129504765   -1.4023004946   -0.0637534248
C        0.7171728935   -0.5446332843    0.5601918833
C        2.6660712568   -1.9593835336    0.6634304405
C        0.8871153518   -0.2442656013    1.9091777386
C        5.0143728580   -2.9933673307    2.1435316732
C        5.1192841366   -2.9716457993    4.5662108521
C        2.8524463632   -1.6844867359    2.0402538617
C        1.9398169773   -0.7938169836    2.6542735456
C        3.9818756343   -2.3175588396    2.7538159092
N        4.0602336826   -2.3312744354    4.1388685593
O        2.0361531952   -0.4028422500    3.9597478029
S        6.1368431043   -3.6458502846    3.3068958973
H        1.4899304416   -1.6427663084   -1.1137801431
H       -0.1047170276   -0.1108134988    0.0009788526
H        3.3221239585   -2.6342503581    0.1299623521
H        0.1877264097    0.4347730084    2.3806455129
H        5.1450494498   -3.1047316732    1.0775581552
H        5.3481254655   -3.0808373433    5.6198357291
H        1.2963074206    0.1759900928    4.1997827080
19   

C        2.0589578117   -0.3643161787    0.0821369999
C        0.7962528172   -0.2617069415    0.6542427906
C        3.0888971257   -1.0010088307    0.7772224791
C        0.5760083680   -0.7859626130    1.9268103275
C        5.3294945875   -2.0060665453    2.4504262153
C        4.9346999506   -3.7404935353    4.1011133136
C        2.8792801933   -1.5699764579    2.0541494782
C        1.6001353876   -1.4262038984    2.6375555159
C        4.0058221477   -2.2274820184    2.7466454074
N        3.8026419027   -3.2410719359    3.6713969207
O        1.3129843010   -1.8591043752    3.9012548418
S        6.3765706923   -3.0361283619    3.3891518933
H        2.2408878660    0.0442409231   -0.9055095683
H       -0.0084940966    0.2284220547    0.1170760802
H        4.0521249864   -1.0759133304    0.2878824176
H       -0.4068299768   -0.6822820829    2.3692649749
H        5.6880931643   -1.2752366745    1.7398376370
H        4.9782924617   -4.5364254140    4.8352929428
H        0.3699606298   -1.7442600762    4.0961480838
19   

C        2.0554470349   -0.4297808117    0.0385492404
C        0.8060186649   -0.2731061323    0.6314372116
C        3.0833765804   -1.0657946294    0.7382041586
C        0.5978698189   -0.7384882007    1.9301124323
C        5.3158974686   -1.8845548582    2.5568728755
C        4.9536059317   -3.8316130516    3.9614168753
C        2.8761670080   -1.5861203729    2.0330091111
C        1.6211216055   -1.3768272286    2.6427084933
C        3.9996448211   -2.2186634689    2.7538679696
N        3.8134622705   -3.3577751392    3.5227665322
O        1.3717551805   -1.7540036540    3.9321162501
S        6.3795361134   -2.9502756990    3.4350021524
H        2.2282436117   -0.0625081105   -0.9667706187
H        0.0032538261    0.2162723519    0.0906524747
H        4.0431263280   -1.1837825322    0.2487023363
H       -0.3710215203   -0.5891241448    2.3899073095
H        5.6493938572   -1.0595811837    1.9427407547
H        5.0141891982   -4.7112979253    4.5914377911
H        0.4346839581   -1.6281617082    4.1491501691
19   

C        2.0443275330   -0.5064115901    0.0019769196
C        0.8156436466   -0.2808011295    0.6189698891
C        3.0683549608   -1.1475843825    0.7034630107
C        0.6248822110   -0.6805528969    1.9431522875
C        5.2840576566   -1.7799956182    2.6819336210
C        4.9984610253   -3.9114976890    3.8108066152
C        2.8697709514   -1.6077844189    2.0193097981
C        1.6449220078   -1.3236910473    2.6551628275
C        3.9906741597   -2.2258010665    2.7621589508
N        3.8499678210   -3.4689838448    3.3602466551
O        1.4317326930   -1.6469176760    3.9655738692
S        6.3775036155   -2.8684768860    3.4928509286
H        2.2040278487   -0.1871868476   -1.0217254376
H        0.0163228500    0.2125641427    0.0767203404
H        4.0181953302   -1.3174276092    0.2088950644
H       -0.3252632961   -0.4769552449    2.4208908224
H        5.5790041851   -0.8691060288    2.1790034800
H        5.0944794716   -4.8598025783    4.3265237901
H        0.5053846975   -1.4897193655    4.2082172707
19   

C        2.0230449394   -0.6116851248   -0.0479326629
C        0.8210288028   -0.3068069513    0.5897073870
C        3.0451620726   -1.2485733625    0.6608467531
C        0.6541121290   -0.6250833374    1.9398858128
C        5.2250945345   -1.6650796396    2.8641521579
C        5.0695306277   -3.9565591118    3.6588296199
C        2.8668449360   -1.6203856579    2.0047082277
C        1.6725214247   -1.2635770587    2.6578070826
C        3.9855171922   -2.2360653805    2.7606188658
N        3.9215553936   -3.5605277351    3.1647263900
O        1.4926786527   -1.5215363626    3.9875404698
S        6.3549366917   -2.7563403052    3.6196398324
H        2.1634342443   -0.3569023095   -1.0923051918
H        0.0236974558    0.1835881825    0.0418689203
H        3.9780301574   -1.4808979549    0.1590012573
H       -0.2750727835   -0.3637819762    2.4306091519
H        5.4595754970   -0.6682345981    2.5159126224
H        5.2212920957   -4.9568777734    4.0471948711
H        0.5803634852   -1.3205027213    4.2514710670
19   

C        1.9206546682   -0.8932665595   -0.1250708720
C        0.7693656497   -0.4661662716    0.5373106137
C        2.9698403923   -1.4648187890    0.6000868790
C        0.6718329558   -0.6140863158    1.9239488761
C        5.0257106058   -1.5340808833    3.3188948598
C        5.0850571957   -3.9449758058    3.6501506309
C        2.8824623781   -1.6076483833    1.9937801459
C        1.7184311544   -1.1834384250    2.6589806755
C        3.9972624715   -2.2333371132    2.7517472240
N        4.0352778011   -3.6058348908    2.9408208167
O        1.6005850114   -1.3056055323    4.0148994088
S        6.1239225638   -2.6104761683    4.1399599615
H        1.9997753429   -0.7864214133   -1.2009979553
H       -0.0470400431   -0.0234974269   -0.0229201712
H        3.8590895937   -1.8068828260    0.0820068514
H       -0.2267839305   -0.2792124775    2.4267593274
H        5.1230125176   -0.4580715563    3.2669560848
H        5.3004539743   -4.9739207397    3.9135829983
H        0.7001649616   -1.0763277822    4.2974101092
19   

C        1.8084620492   -1.1371032077   -0.1406105295
C        0.7096523104   -0.5977680732    0.5266162025
C        2.8847869482   -1.6462519711    0.5906507772
C        0.6860894601   -0.5888966302    1.9234758660
C        4.7551303472   -1.5815131564    3.6986821425
C        5.0807465153   -3.9851193247    3.5701922131
C        2.9000273873   -1.5809635377    1.9938930511
C        1.7627685086   -1.0938961785    2.6626528570
C        4.0094630124   -2.2203129983    2.7454646706
N        4.1693332474   -3.5971346177    2.7104604217
O        1.6942681887   -1.0881204515    4.0277155611
S        5.8039816910   -2.6993422256    4.5278623753
H        1.8252921949   -1.1692408512   -1.2240838330
H       -0.1275565300   -0.2005676946   -0.0369630501
H        3.7261701649   -2.0905007003    0.0698389678
H       -0.1819647982   -0.1872306170    2.4310443840
H        4.6688296177   -0.5254977548    3.9164879569
H        5.3621899999   -5.0248791228    3.6893305337
H        0.8034629826   -0.8319596025    4.3185753420
19   

C        1.7918618801   -1.1899409142   -0.1333368741
C        0.7242462006   -0.5813810911    0.5225095013
C        2.8644708171   -1.6945886828    0.6056466236
C        0.7278298427   -0.5011378507    1.9165428365
C        4.6289692646   -1.6779161677    3.8581762288
C        5.1903496195   -3.9901806824    3.3793363109
C        2.9133908422   -1.5578393019    2.0047734382
C        1.8007401122   -1.0028698868    2.6641801094
C        4.0132735737   -2.2063006718    2.7544126991
N        4.3103826039   -3.5406842167    2.5168128188
O        1.7393984459   -0.9315017623    4.0278941049
S        5.7160656490   -2.8276035127    4.5883537619
H        1.7876254181   -1.2802970017   -1.2136366094
H       -0.1107879370   -0.1875050371   -0.0466067348
H        3.6797574970   -2.1930043270    0.0919693401
H       -0.1192581344   -0.0481320364    2.4162725908
H        4.4341383504   -0.6813823313    4.2314303495
H        5.5606453475   -5.0084132992    3.3550686685
H        0.8607393429   -0.6259551933    4.3085608595
19   

C        1.7826927631   -1.2147090700   -0.1310683379
C        0.7428211957   -0.5437659032    0.5056412842
C        2.8411412752   -1.7288057323    0.6209446386
C        0.7611472882   -0.4081065502    1.8943899374
C        4.5270774282   -1.7673387369    3.9626933188
C        5.3262011284   -3.9323041331    3.2124433911
C        2.9038884267   -1.5510405945    2.0175953122
C        1.8188613394   -0.9201350578    2.6572641841
C        3.9978860273   -2.1954652065    2.7720167351
N        4.4428247271   -3.4490842495    2.3721973756
O        1.7541930909   -0.7903941773    4.0163508693
S        5.6851692385   -2.9069838754    4.5928752053
H        1.7692335555   -1.3450677167   -1.2072028827
H       -0.0816827011   -0.1426184853   -0.0736680642
H        3.6349740348   -2.2676706179    0.1143594450
H       -0.0652438055    0.0964161641    2.3792234157
H        4.2484999208   -0.8419226594    4.4483084338
H        5.7969653837   -4.8980121104    3.0699519665
H        0.8928509848   -0.4233647083    4.2768269283
19   

C        1.7687500575   -1.2521548595   -0.1238870195
C        0.7638078406   -0.5173966062    0.4951384862
C        2.8084993157   -1.7876814106    0.6384836078
C        0.8003324478   -0.3353926890    1.8771220073
C        4.4394969802   -1.8860983693    4.0414177463
C        5.4707949343   -3.8596652061    3.0801525079
C        2.8852784093   -1.5821581813    2.0340514310
C        1.8383270413   -0.8688231825    2.6530040658
C        3.9770513763   -2.2214147237    2.7919360845
N        4.5700323002   -3.3641459487    2.2665726251
O        1.7757910684   -0.6813818800    4.0048522895
S        5.6803877237   -2.9824359636    4.5853924222
H        1.7448147758   -1.4132887997   -1.1956739084
H       -0.0462377786   -0.0992655361   -0.0925094615
H        3.5750838975   -2.3645593811    0.1320836179
H        0.0015693957    0.2241965591    2.3476487173
H        4.0883872524   -1.0428715640    4.6190269329
H        6.0432196926   -4.7487734204    2.8428261959
H        0.9421065397   -0.2420679647    4.2428101401
19   

C        1.7390802029   -1.2945669599   -0.1166112691
C        0.7721445633   -0.4989883550    0.4842513236
C        2.7614762695   -1.8491968530    0.6549363107
C        0.8324666748   -0.2706473379    1.8573199334
C        4.3399468146   -2.0191482202    4.1077966167
C        5.6016832020   -3.7538535898    2.9796055545
C        2.8557750506   -1.6159827465    2.0485475311
C        1.8528328412   -0.8222540825    2.6444380713
C        3.9477419450   -2.2509626867    2.8090124676
N        4.6850494027   -3.2543645711    2.1872594916
O        1.8071545020   -0.5655699647    3.9846456970
S        5.6624166290   -3.0501654998    4.5835866696
H        1.7009981480   -1.4866843046   -1.1828810452
H       -0.0243992650   -0.0655644531   -0.1107372402
H        3.4960790308   -2.4653060653    0.1479428355
H        0.0656349868    0.3433993326    2.3128395882
H        3.9068029822   -1.2842078646    4.7692345400
H        6.2734319020   -4.5449171885    2.6674076336
H        1.0137806533   -0.0460033670    4.1975957669
19   

C        1.6904659182   -1.3422233498   -0.1042415503
C        0.7646477901   -0.4925278397    0.4856482449
C        2.7059714432   -1.9085845675    0.6676050156
C        0.8634496160   -0.2161328892    1.8470713445
C        4.2373292445   -2.1651897482    4.1486961816
C        5.7281326719   -3.6102792218    2.9005280300
C        2.8292847410   -1.6439767760    2.0548688362
C        1.8779748236   -0.7775463467    2.6351328430
C        3.9262528502   -2.2756264943    2.8111664720
N        4.8000085815   -3.1118295343    2.1214577181
O        1.8832809071   -0.4405864018    3.9576870081
S        5.6381092482   -3.1102997679    4.5766769441
H        1.6265451206   -1.5668617119   -1.1628978387
H       -0.0264995566   -0.0497430497   -0.1096499510
H        3.4055272562   -2.5657926629    0.1629763077
H        0.1336670421    0.4485413781    2.2922897280
H        3.7008153021   -1.5738889736    4.8741319922
H        6.4958668713   -4.2827253936    2.5359907570
H        1.1472388538    0.1643755126    4.1501074635
