24   

C       -2.3375651222   -2.2523546022    1.5195067360
C       -4.1073319202    1.8502811272    2.3938490361
C       -4.6672377194   -0.4768500401    2.6065330239
C       -5.3601805594    2.1998676827    2.9102638495
C       -5.9198393837   -0.1206962818    3.1209126227
C       -3.7263481619    0.5060008978    2.2240431267
C       -6.2795861041    1.2177007887    3.2771509869
C       -2.3775438159    0.2421259699    1.6574834210
C       -0.3696257212   -1.0527428876    0.8011800953
C       -1.7355851253   -0.9573049848    1.3446762704
C        1.6432994739    1.8695442213    1.1222896170
N       -2.7819560021   -3.3226231787    1.6385834174
N        0.5973867405   -0.2022592971    0.7263207960
O        0.4433247865    1.1058255497    1.2418534624
Cl      -7.8445150396    1.6530452868    3.9178359163
H       -3.4242881385    2.6464270146    2.1202843232
H       -4.4845054023   -1.5365868110    2.5291682260
H       -5.6258027172    3.2438993320    3.0279435584
H       -6.6237245523   -0.8953349256    3.4029821674
H       -1.8417796970    1.1507491017    1.4303596076
H       -0.0783818107   -2.0391273733    0.4562353754
H        1.4689764278    2.8879804921    1.4811381963
H        1.9615140133    1.9137422942    0.0761799431
H        2.4394048401    1.4156958638    1.7201713952
24   

C       -2.2844868117   -2.2454691416    1.5651327103
C       -4.1621447420    1.8520052489    2.2635998583
C       -4.6083228724   -0.4709738016    2.6881538430
C       -5.3901353293    2.1942361929    2.8412137699
C       -5.8357534846   -0.1224097510    3.2645874296
C       -3.7390579944    0.5135348136    2.1669961684
C       -6.2398112482    1.2101334264    3.3459099914
C       -2.4266077638    0.2531246599    1.5220399305
C       -0.4373548208   -1.0072448735    0.6072751960
C       -1.7708317108   -0.9438636456    1.2377005839
C        1.6412562088    1.7798510658    1.3447957789
N       -2.6635534938   -3.3203570094    1.8059688093
N        0.5489456292   -0.1778049219    0.6231290584
O        0.4139664887    1.0516427461    1.3122316623
Cl      -7.7738179250    1.6359855793    4.0632019259
H       -3.5332535382    2.6480928157    1.8815589467
H       -4.3848636402   -1.5258511585    2.6751338608
H       -5.6911905577    3.2336886855    2.8986845921
H       -6.4849223885   -0.8982161399    3.6541861209
H       -1.9301197436    1.1521713783    1.1832262195
H       -0.1674977245   -1.9680104009    0.1824177254
H        1.4877272477    2.7384771604    1.8485937391
H        1.9962513626    1.9688141223    0.3270427264
H        2.4016617750    1.2122528805    1.8896846564
24   

C       -2.2014762762   -2.2074926695    1.6283605722
C       -4.2210521577    1.8524842760    2.1795206609
C       -4.5678734999   -0.4614967588    2.7291523866
C       -5.4267698734    2.1834120693    2.8083389420
C       -5.7721597038   -0.1240705525    3.3586279153
C       -3.7604774065    0.5246091283    2.1200193146
C       -6.2144359324    1.1981985371    3.4036943715
C       -2.4792647757    0.2725678827    1.4143977969
C       -0.5021179045   -0.9380206954    0.4388648750
C       -1.8013247417   -0.9149542721    1.1508452071
C        1.6275836640    1.6818814292    1.5184111134
N       -2.4945502346   -3.2752151754    1.9904947416
N        0.5031068940   -0.1406384770    0.5380601091
O        0.3792122074    1.0085763994    1.3573706474
Cl      -7.7199927849    1.6100281777    4.1864544443
H       -3.6401738658    2.6480434620    1.7268718796
H       -4.3113202694   -1.5089943303    2.7443181954
H       -5.7589683506    3.2145959351    2.8350797855
H       -6.3733114755   -0.9004537174    3.8178647008
H       -2.0205972133    1.1625008101    1.0007390322
H       -0.2516476938   -1.8693439028   -0.0569243014
H        1.4964940908    2.5512393002    2.1690608619
H        2.0013913704    2.0203654756    0.5472684555
H        2.3636522834    1.0103056641    1.9708200143
24   

C       -2.0782022028   -2.1270413610    1.6999928338
C       -4.2799062696    1.8586198677    2.0965791035
C       -4.5131108487   -0.4403935865    2.7585332261
C       -5.4704355084    2.1719117821    2.7622816070
C       -5.7011856320   -0.1201474013    3.4266325473
C       -3.7707114963    0.5477073078    2.0752220654
C       -6.1923942107    1.1856407573    3.4344948985
C       -2.5135156212    0.3099328080    1.3247466211
C       -0.5399750684   -0.8445091345    0.2985601235
C       -1.8025910781   -0.8618576309    1.0870999530
C        1.6613290359    1.5640434428    1.6605674362
N       -2.2763181783   -3.1731612500    2.1727379140
N        0.4930966750   -0.1014586829    0.4732040384
O        0.3929208267    0.9599614425    1.4070612618
Cl      -7.6781328485    1.5757840548    4.2647877396
H       -3.7505168413    2.6535781987    1.5837450580
H       -4.2159212297   -1.4765309990    2.8018161793
H       -5.8422533895    3.1898285218    2.7578432453
H       -6.2513852601   -0.8970853773    3.9449668930
H       -2.0977051198    1.1912057802    0.8491376733
H       -0.3212746703   -1.7390049628   -0.2736366371
H        1.5668286481    2.2956627808    2.4680818486
H        2.0202375654    2.0736957230    0.7613341242
H        2.3919403908    0.8049403713    1.9568276755
24   

C       -1.9593587537   -1.9841903262    1.7756269911
C       -4.4044122160    1.8734301093    1.9833259781
C       -4.4671277436   -0.3844808726    2.8057261398
C       -5.5881603688    2.1584035612    2.6735023974
C       -5.6478248634   -0.0918360303    3.4990335078
C       -3.8141818832    0.5976998109    2.0291499823
C       -6.2208312978    1.1788214446    3.4391018458
C       -2.5745659841    0.3832140273    1.2438799693
C       -0.5913677596   -0.7076714819    0.1827039262
C       -1.8084924971   -0.7598974629    1.0500869482
C        1.7552704210    1.3805385582    1.7875025562
N       -2.0613149569   -2.9976992016    2.3409871534
N        0.4870932254   -0.0532008256    0.4128416858
O        0.4519857135    0.8929499509    1.4676625673
Cl      -7.6977074570    1.5338268567    4.3004066483
H       -3.9462253923    2.6614255768    1.3965671485
H       -4.1029102976   -1.3952050487    2.9046747516
H       -6.0248579386    3.1485069791    2.6150261433
H       -6.1279551559   -0.8630778378    4.0903743548
H       -2.2229931832    1.2515477598    0.6972848866
H       -0.4427520769   -1.5426594971   -0.4922096424
H        1.7228443510    1.9263616661    2.7347502091
H        2.1040338211    2.0562947944    1.0009763007
H        2.4622100253    0.5505041582    1.8844634554
24   

C       -1.8204039539   -1.7665053661    1.8704163927
C       -4.6687425635    1.8149733211    1.7609868671
C       -4.4274804390   -0.3057728481    2.8667327094
C       -5.8485925239    2.0537491450    2.4749517302
C       -5.6065631109   -0.0598765000    3.5806217896
C       -3.9290865526    0.6314324931    1.9354944152
C       -6.3288813738    1.1187509403    3.3920418453
C       -2.7000998879    0.4600795143    1.1233664957
C       -0.6367086240   -0.5113007818    0.1076312839
C       -1.7989260670   -0.5941815260    1.0501650071
C        1.9569616281    1.0904459085    1.8745035290
N       -1.8216776501   -2.7376561305    2.5141128766
N        0.4983718764    0.0267339744    0.3584962557
O        0.6068256082    0.7283560886    1.5853189750
Cl      -7.8008971646    1.4161554242    4.2829598114
H       -4.3309672890    2.5665722200    1.0566355034
H       -3.9387968650   -1.2443876726    3.0768409953
H       -6.4009129767    2.9728210850    2.3177313687
H       -5.9668182549   -0.7952081395    4.2909446320
H       -2.4708076865    1.2873576875    0.4608034642
H       -0.6839170094   -1.1238772487   -0.7849817441
H        2.0254321149    1.4712791236    2.8975067209
H        2.2909990813    1.8699886447    1.1833425203
H        2.6147292179    0.2210212400    1.7779570806
24   

C       -1.6789809878   -1.4939832064    1.9678020214
C       -5.0506398560    1.5423357896    1.4307932507
C       -4.4029077258   -0.2363321098    2.9123586500
C       -6.2247329123    1.7305181701    2.1688767557
C       -5.5815907286   -0.0466752761    3.6438773275
C       -4.1103219741    0.5562521141    1.7807904235
C       -6.5024430068    0.9368246634    3.2817955665
C       -2.8839969040    0.4483327690    0.9532282710
C       -0.6615269247   -0.2592715571    0.0810745943
C       -1.7741845763   -0.3789471581    1.0744385095
C        2.2282297437    0.7178087395    1.8672730696
N       -1.5915499405   -2.4175816527    2.6729664674
N        0.5292294732    0.1428865108    0.3309301293
O        0.8707468966    0.3126826955    1.6964414635
Cl      -7.9667810520    1.1719741664    4.2034200588
H       -4.8712889834    2.1849131220    0.5764344767
H       -3.7459706811   -1.0116418665    3.2748419327
H       -6.9291786098    2.5018060210    1.8801059995
H       -5.7825958997   -0.6695853553    4.5079688213
H       -2.8207450744    1.1672138184    0.1440724532
H       -0.9390218331   -0.1723911629   -0.9626837223
H        2.3944441067    1.0160499674    2.9064025724
H        2.4581424721    1.5670460206    1.2163808078
H        2.8991115397   -0.1117162876    1.6253848032
24   

C       -2.2439047991   -2.3543558026    1.8998735438
C       -4.3150050587    1.6920663208    1.5331000675
C       -4.4330718657   -0.3134717696    2.8529203025
C       -5.4280777286    2.2038323108    2.2095837613
C       -5.5495074249    0.2017820512    3.5226990104
C       -3.7893511920    0.4220639776    1.8336093499
C       -6.0575029796    1.4628587240    3.2096876223
C       -2.5934859685   -0.0248166476    1.0776916159
C       -0.6748079127   -1.3588787566    0.2536256830
C       -1.8425303048   -1.1919826809    1.1630587128
C        2.0524779685   -2.5891239215    2.1487813274
N       -2.5687308206   -3.3135829773    2.4766933211
N        0.5147122748   -1.7077308038    0.5856394239
O        0.7282372622   -2.1061222246    1.9294969679
Cl      -7.4461306833    2.1013079317    4.0541023587
H       -3.8537521959    2.3036092860    0.7661259138
H       -4.1032700576   -1.2892788971    3.1740733651
H       -5.8091663701    3.1873672006    1.9606200799
H       -6.0261618323   -0.3843001157    4.3001155060
H       -2.2172421185    0.7020096826    0.3666270730
H       -0.7294966203   -0.8705237658   -0.7120997354
H        2.2120750268   -2.7481469244    3.2191290190
H        2.7870855999   -1.8632919881    1.7868488166
H        2.1964567496   -3.5385348676    1.6247451610
24   

C       -2.0704835847   -2.1765831022    2.0973384390
C       -4.4137992917    1.6797675123    1.4866477370
C       -4.3993031284   -0.2454261971    2.9255970833
C       -5.5658977144    2.1506305424    2.1263182020
C       -5.5546583257    0.2287264699    3.5588705877
C       -3.8012528472    0.4707921917    1.8653390729
C       -6.1488231143    1.4287342301    3.1675120713
C       -2.5731713771    0.0652407580    1.1370855207
C       -0.5779881383   -1.1589223108    0.3723664611
C       -1.7447115288   -1.0443273593    1.2781984468
C        2.0839997280   -2.8464000836    2.0021912607
N       -2.3364542671   -3.1104463297    2.7423069516
N        0.5878657615   -1.6353078195    0.6300090262
O        0.8194868004   -2.1928291424    1.9124595208
Cl      -7.5864252903    2.0160196759    3.9658276246
H       -3.9926872434    2.2749605294    0.6845249457
H       -4.0049038173   -1.1740575838    3.3075264036
H       -6.0145688218    3.0869898235    1.8156522864
H       -5.9945868923   -0.3416409924    4.3689426483
H       -2.2508865672    0.7777078567    0.3861276266
H       -0.6196353202   -0.5881435702   -0.5477777679
H        2.2429700919   -3.1971311786    3.0259831008
H        2.8881252169   -2.1532147992    1.7374324818
H        2.1118737889   -3.7057986481    1.3258260221
24   

C       -1.9331843839   -2.0117265858    2.3022586233
C       -4.4675495656    1.6728974465    1.4669863165
C       -4.3901463368   -0.1896124219    2.9838736486
C       -5.6519935361    2.1143450056    2.0671161562
C       -5.5774491277    0.2554081163    3.5781775717
C       -3.8055872755    0.5107099850    1.9054232819
C       -6.2194915068    1.4090844093    3.1278104603
C       -2.5491854594    0.1342668828    1.2090606270
C       -0.4981836799   -1.0008384557    0.5017708120
C       -1.6683757304   -0.9290097054    1.3971401852
C        2.1012048504   -3.0260938155    1.8392851170
N       -2.1510835084   -2.9036610371    3.0207454521
N        0.6362471710   -1.5849676878    0.6701434873
O        0.8693423451   -2.3080663259    1.8660125471
Cl      -7.6975903275    1.9596049402    3.8768358648
H       -4.0615458273    2.2539732017    0.6469169264
H       -3.9637701909   -1.0843564573    3.4091301595
H       -6.1385634392    3.0143612594    1.7095659059
H       -6.0055774064   -0.3019397246    4.4034940618
H       -2.2606087270    0.8299225989    0.4292350570
H       -0.5256147726   -0.3612457583   -0.3725022595
H        2.2418485627   -3.5465907002    2.7910043530
H        2.9368868927   -2.3366236869    1.6865535893
H        2.0901126804   -3.7637289036    1.0314266362
24   

C       -3.0037669818   -1.9072035395    0.4048070009
C       -4.0687933778    2.0866557002    2.2966654607
C       -4.6023139894   -0.2454123891    2.5234890377
C       -4.9643081754    2.3934697348    3.3270640211
C       -5.4984138586    0.0682166194    3.5529048822
C       -3.8630307686    0.7625064606    1.8652754999
C       -5.6886851669    1.3872302968    3.9649420383
C       -2.8856292435    0.5456172962    0.7676049205
C       -1.4551786517   -0.4364430594   -0.9468528024
C       -2.4541737722   -0.6113352694    0.1190144262
C       -0.0569960793   -3.4944903354   -2.1235659018
N       -3.4550620139   -2.9595665211    0.6248111449
N       -0.7349434441   -1.2952464606   -1.5813668447
O       -0.8537780393   -2.6724094788   -1.2733497964
Cl      -6.8063933168    1.7696967434    5.2507635787
H       -3.5268970179    2.9016520506    1.8306944698
H       -4.5214339524   -1.2932600202    2.2823443947
H       -5.1010235235    3.4225296322    3.6384862795
H       -6.0536764664   -0.7249253331    4.0404494847
H       -2.4196395324    1.4615478706    0.4224206100
H       -1.2233123312    0.5880076855   -1.2130303324
H       -0.1878683594   -4.5439989740   -1.8444676239
H        0.9997697915   -3.2304833018   -2.0210545256
H       -0.3613635109   -3.3656077087   -3.1664740051
24   

C       -2.8064510763   -1.9340898269    0.6016928390
C       -4.0993521690    2.0890660195    2.2740625050
C       -4.5702387426   -0.2493360348    2.5644912970
C       -5.0358734763    2.4025718769    3.2652056398
C       -5.5062522644    0.0708455224    3.5556947873
C       -3.8398199719    0.7580910471    1.8956117214
C       -5.7487416214    1.3964158500    3.9159312473
C       -2.8260066275    0.5361291988    0.8321976542
C       -1.3163649093   -0.4483061282   -0.8066626124
C       -2.3401342554   -0.6264459398    0.2329625435
C       -0.1534672482   -3.4866494918   -2.2637493253
N       -3.1821944175   -2.9974128331    0.8979924865
N       -0.6806834443   -1.3002315620   -1.5344412011
O       -0.9398824996   -2.6842576667   -1.3855701604
Cl      -6.9175854113    1.7872073136    5.1528497104
H       -3.5692298093    2.9046318247    1.7957061531
H       -4.4552154685   -1.3014141285    2.3586229210
H       -5.2143239272    3.4369262855    3.5352333182
H       -6.0529037484   -0.7222137582    4.0530097683
H       -2.3901478754    1.4566054262    0.4608198879
H       -1.0303322992    0.5760363763   -1.0139645949
H       -0.4019172096   -4.5415742584   -2.1157399509
H        0.9107339734   -3.3415264207   -2.0556136154
H       -0.3572501575   -3.2182088428   -3.3045955722
24   

C       -2.6037150066   -1.9405237091    0.7925119273
C       -4.1213694395    2.0906282863    2.2452433424
C       -4.5303522252   -0.2516843995    2.5930029185
C       -5.0983687795    2.4041759852    3.1965348613
C       -5.5057837053    0.0685036289    3.5454131957
C       -3.8089481861    0.7576884611    1.9174024675
C       -5.7998010594    1.3960678377    3.8567104668
C       -2.7594430592    0.5348970679    0.8897030031
C       -1.1717387396   -0.4595188385   -0.6722969044
C       -2.2227508215   -0.6306577548    0.3430446736
C       -0.2954078838   -3.4747742872   -2.3552295412
N       -2.9009499155   -3.0057136063    1.1620551372
N       -0.6315431738   -1.3036699054   -1.4813762099
O       -1.0527674117   -2.6556867007   -1.4669413280
Cl      -7.0190057973    1.7869349803    5.0439988369
H       -3.6025604497    2.9075203755    1.7568524968
H       -4.3806863189   -1.3051928955    2.4186651935
H       -5.3180501675    3.4400733869    3.4273935212
H       -6.0438664754   -0.7260322619    4.0496673418
H       -2.3500645448    1.4555625730    0.4896911720
H       -0.8252946295    0.5554308818   -0.8271079884
H       -0.6588620477   -4.5050861415   -2.3018331899
H        0.7619942868   -3.4581392720   -2.0749892268
H       -0.4017896176   -3.1151174593   -3.3829891711
24   

C       -2.3822467273   -1.9342920784    0.9819202827
C       -4.1348979593    2.0799055341    2.2095333956
C       -4.4701480374   -0.2648137484    2.6166569931
C       -5.1520299045    2.3850405824    3.1207428878
C       -5.4849063655    0.0470287651    3.5298538166
C       -3.7643124947    0.7503689261    1.9336811724
C       -5.8361422320    1.3715595318    3.7910976882
C       -2.6803295149    0.5331650976    0.9421894154
C       -1.0146782546   -0.4750098126   -0.5425437729
C       -2.0923631645   -0.6314481071    0.4525429521
C       -0.4755598466   -3.4441645622   -2.4241147147
N       -2.5982143802   -2.9928355747    1.4202056345
N       -0.5810479191   -1.3027337013   -1.4276379628
O       -1.1637021273   -2.5914592468   -1.5113550471
Cl      -7.1053361521    1.7519813219    4.9283398637
H       -3.6317739631    2.8999652578    1.7101672676
H       -4.2796081220   -1.3167500046    2.4740481379
H       -5.4172714106    3.4183933386    3.3116574908
H       -6.0097007816   -0.7516189314    4.0415501532
H       -2.2978490208    1.4509068401    0.5099876556
H       -0.6070102127    0.5229449126   -0.6524396769
H       -0.9822787890   -4.4123082082   -2.4731005259
H        0.5543157124   -3.6008894405   -2.0899794668
H       -0.4665775514   -2.9989167803   -3.4234887350
24   

C       -2.1693763200   -1.9215364679    1.1806625953
C       -4.1506803474    2.0640513226    2.1448427122
C       -4.4005987243   -0.2734190177    2.6457375799
C       -5.2103639898    2.3635790281    3.0083027387
C       -5.4573857640    0.0330204483    3.5117805780
C       -3.7155784080    0.7413117264    1.9415856549
C       -5.8729679713    1.3511303221    3.7017775121
C       -2.5946341189    0.5249863991    0.9930544293
C       -0.8439075396   -0.5089418113   -0.3960750777
C       -1.9560263726   -0.6386659650    0.5740871196
C       -0.6919276319   -3.3735364250   -2.4846189192
N       -2.3191923987   -2.9635440461    1.6812635647
N       -0.5247051474   -1.3040526962   -1.3544188793
O       -1.2611524267   -2.5055899036   -1.5064363063
Cl      -7.1952361766    1.7246128152    4.7792936372
H       -3.6665868203    2.8820160115    1.6237086173
H       -4.1613810154   -1.3212500493    2.5531109691
H       -5.5263521731    3.3914812709    3.1430516310
H       -5.9650300966   -0.7648661670    4.0416360725
H       -2.2348795408    1.4328169184    0.5220567125
H       -0.3668023403    0.4618103694   -0.4608848062
H       -1.3316316419   -4.2516752234   -2.6114488502
H        0.3006035502   -3.7027347190   -2.1631795711
H       -0.6066399507   -2.8569366705   -3.4453835319
24   

C       -1.9618382707   -1.9123904372    1.4231887960
C       -4.1648355628    2.0317517856    2.0438713582
C       -4.3153668258   -0.2744907237    2.7045960747
C       -5.2652450039    2.3363130901    2.8530828547
C       -5.4127326581    0.0373249156    3.5164272199
C       -3.6594687978    0.7221205870    1.9489404788
C       -5.8987894364    1.3424186032    3.5988778057
C       -2.5032715845    0.4937496665    1.0475971647
C       -0.6713298334   -0.5808436197   -0.2283932748
C       -1.8111469812   -0.6687101956    0.7262932735
C       -0.9484105326   -3.2406711359   -2.5502671129
N       -2.0583209279   -2.9233368753    1.9950548852
N       -0.4720696734   -1.3200230093   -1.2584505560
O       -1.3429194759   -2.4222849761   -1.4504556728
Cl      -7.2719979665    1.7221104103    4.6083712020
H       -3.7056836615    2.8338758296    1.4775130978
H       -4.0214219879   -1.3125384615    2.6929568219
H       -5.6364142709    3.3532810839    2.9036759477
H       -5.8969992741   -0.7463564735    4.0877422214
H       -2.1687556710    1.3783662315    0.5175019783
H       -0.1188055278    0.3510022049   -0.2505059446
H       -1.7192065982   -3.9924850364   -2.7427566743
H       -0.0076637688   -3.7494068468   -2.3202205188
H       -0.8175156785   -2.6316053564   -3.4499166030
24   

C       -2.7750763730   -1.6415483457    0.1851310177
C       -3.6423748945    1.4816852019    3.4054712512
C       -4.7882295671   -0.1982737935    2.1236891317
C       -4.8320191795    1.7796732606    4.0797341277
C       -5.9741944308    0.1008188542    2.8051707193
C       -3.5876677449    0.4871247385    2.4120303579
C       -6.0092909896    1.0911093299    3.7872234727
C       -2.2874929489    0.2596377434    1.7351005899
C       -0.5259410879   -0.6120492509    0.2060571793
C       -1.9375490094   -0.6014390722    0.7022061101
C       -0.6080909455    0.3858909114   -3.1842603789
N       -3.4342191289   -2.5063212965   -0.2339597372
N       -0.1358068793   -0.2412133178   -0.9569651526
O       -1.1477777749    0.0267320542   -1.9131144643
Cl      -7.4939293504    1.4632755334    4.6276509667
H       -2.7517884942    2.0449062907    3.6597074227
H       -4.8608721183   -0.9699448544    1.3731590437
H       -4.8468425579    2.5551139275    4.8366956125
H       -6.8818324732   -0.4411642619    2.5653357773
H       -1.4846523774    0.9065357614    2.0705002262
H        0.2597960900   -0.6003549400    0.9520218286
H       -1.4077715865    0.7587934509   -3.8306492232
H       -0.1498731777   -0.4881398883   -3.6562970413
H        0.1470497941    1.1698551634   -3.0707594508
24   

C       -2.7790387869   -1.9152037591    0.3546117579
C       -3.7220015690    1.7620689882    2.9126526567
C       -4.7654213569   -0.2698014198    2.1634805231
C       -4.8891585639    2.1075142791    3.6034554407
C       -5.9314997960    0.0826959501    2.8536636492
C       -3.6278790995    0.5666857359    2.1774627210
C       -6.0054910019    1.2713140623    3.5804374752
C       -2.3453495646    0.2782647945    1.4910544020
C       -0.5583397116   -0.8588911705    0.1693292580
C       -1.9458142884   -0.8154070930    0.7339882373
C       -0.7114390655    0.7710206253   -2.9506476627
N       -3.4301919766   -2.8298028762    0.0431854918
N       -0.1841475263   -0.3502671353   -0.9450962576
O       -1.1386416515    0.4442053106   -1.6284193063
Cl      -7.4618516169    1.7018194990    4.4422334960
H       -2.8764679164    2.4389385243    2.9576653362
H       -4.8002229404   -1.2078473334    1.6316677864
H       -4.9327334099    3.0330849312    4.1654972717
H       -6.7915296603   -0.5765530749    2.8255155467
H       -1.5813400037    1.0384088898    1.6111605284
H        0.1417485448   -1.5400807991    0.6384718043
H       -1.5374254012    1.2290001936   -3.5022450695
H       -0.3903125459   -0.1302289439   -3.4821634133
H        0.1223303924    1.4782165262   -2.9098206476
24   

C       -2.7784924222   -2.1329244016    0.5281639594
C       -3.7740322659    1.8270415877    2.5850422632
C       -4.7312885046   -0.3502129883    2.2363025064
C       -4.9160308740    2.2162713454    3.2943752235
C       -5.8738877124    0.0468142327    2.9414392644
C       -3.6500503211    0.5365787044    2.0397742222
C       -5.9776679869    1.3302714268    3.4785281770
C       -2.3916166016    0.2073750192    1.3274963533
C       -0.6171275668   -1.0473501612    0.0925855276
C       -1.9609721403   -0.9785651576    0.7450245941
C       -0.7119617753    1.0605756007   -2.7337579071
N       -3.4134383404   -3.0924322535    0.3453589061
N       -0.2442146510   -0.4224458250   -0.9631557509
O       -1.0971504261    0.6060376860   -1.4362220182
Cl      -7.4026939187    1.8153579405    4.3634213754
H       -2.9696843371    2.5442410232    2.4675495281
H       -4.7374443276   -1.3630357815    1.8646195735
H       -4.9819341324    3.2149802058    3.7099108409
H       -6.6912272295   -0.6523790346    3.0760040795
H       -1.6665658296    1.0128118297    1.2833653060
H       -0.0320232658   -1.9394036118    0.2841420521
H       -1.5042906140    1.6850352669   -3.1562699217
H       -0.5401462483    0.2110612575   -3.4022785665
H        0.2060667687    1.6516392218   -2.6646081718
24   

C       -2.7938317289   -2.2821252747    0.6732330714
C       -3.8141020468    1.8189459543    2.4140013173
C       -4.7197646038   -0.4050010172    2.3048155473
C       -4.9347730614    2.2406442066    3.1385163351
C       -5.8406841798    0.0236898938    3.0260732921
C       -3.6755471088    0.4884237268    1.9795707674
C       -5.9594770155    1.3472405383    3.4509917725
C       -2.4421439632    0.1319738795    1.2366913663
C       -0.7136005239   -1.1923728431   -0.0040303020
C       -2.0063385797   -1.0866337586    0.7267614363
C       -0.6229996284    1.2204123137   -2.5869940915
N       -3.4011005699   -3.2748023210    0.6192100363
N       -0.3019883649   -0.4844557437   -0.9935787822
O       -1.0640055054    0.6554315507   -1.3523410305
Cl      -7.3577304951    1.8726627537    4.3553341427
H       -3.0386156229    2.5438771882    2.1942075038
H       -4.7127738547   -1.4469277714    2.0252867713
H       -5.0128367255    3.2710230524    3.4650885307
H       -6.6292097455   -0.6818876247    3.2614636881
H       -1.7447112706    0.9508519131    1.0997114219
H       -0.1947922112   -2.1408329715    0.0773710131
H       -1.3052988795    2.0190035279   -2.8919485579
H       -0.6033781336    0.4559170865   -3.3699187578
H        0.3814683961    1.6382863544   -2.4703769022
24   

C       -2.7889644805   -2.3645686435    0.7919289066
C       -3.8570334385    1.8104094176    2.3060072252
C       -4.7156023584   -0.4341351056    2.3480510509
C       -4.9528001007    2.2445932211    3.0606221303
C       -5.8105848207    0.0064871506    3.1012481484
C       -3.7068368183    0.4627250172    1.9316646067
C       -5.9402000425    1.3467099397    3.4660128302
C       -2.5009140920    0.0977599458    1.1471083176
C       -0.8159179975   -1.2735207655   -0.1204371556
C       -2.0577708428   -1.1355286286    0.6758838724
C       -0.4899855009    1.3376233030   -2.4958874708
N       -3.3468159673   -3.3842239446    0.8704842468
N       -0.3458310392   -0.5129112420   -1.0460099146
O       -1.0122410513    0.7052793869   -1.3275201854
Cl      -7.3065028958    1.8873132635    4.4094114419
H       -3.1107335353    2.5402326870    2.0133950263
H       -4.7019023970   -1.4876717236    2.1174459930
H       -5.0404350816    3.2885292223    3.3379824747
H       -6.5705117398   -0.7027999739    3.4086137194
H       -1.8369484737    0.9297333702    0.9461443413
H       -0.3509227719   -2.2530315907   -0.1050803468
H       -1.0417201705    2.2611779900   -2.6932467583
H       -0.5899897463    0.6751026914   -3.3610790669
H        0.5670782575    1.5812164680   -2.3520525826
24   

C       -2.7815145362   -2.3991857624    0.9062001447
C       -3.9147314480    1.8181165070    2.2225043936
C       -4.7132403126   -0.4412615018    2.4045546722
C       -4.9765794937    2.2585404694    3.0207698785
C       -5.7732076043    0.0053488415    3.2029084446
C       -3.7506410261    0.4593609335    1.8958590247
C       -5.9153771056    1.3561416405    3.5202296400
C       -2.5819580366    0.0913091863    1.0561928182
C       -0.9450626231   -1.3233069336   -0.2483162967
C       -2.1293498216   -1.1518267352    0.6163826867
C       -0.3336487784    1.4232422735   -2.4197174751
N       -3.2726278794   -3.4336279664    1.1202437957
N       -0.4089312742   -0.5383205065   -1.1185803382
O       -0.9615631402    0.7479461209   -1.3300907641
Cl      -7.2382725666    1.9043155172    4.5194734681
H       -3.2062368224    2.5527517701    1.8570448934
H       -4.6917782585   -1.5022741371    2.2130850630
H       -5.0754912700    3.3111376519    3.2587919799
H       -6.4961618146   -0.7076058885    3.5825347024
H       -1.9652485165    0.9376574203    0.7861104940
H       -0.5333989878   -2.3262058859   -0.2818278891
H       -0.7584867733    2.4255031063   -2.5261756204
H       -0.4962587380    0.8700622412   -3.3496841557
H        0.7420513531    1.5130853085   -2.2398635835
24   

C       -2.7625250196   -2.4233510535    0.9849671145
C       -4.0056877618    1.8071300520    2.1166462109
C       -4.6885778562   -0.4682828192    2.4779877237
C       -5.0282044631    2.2494668849    2.9635962095
C       -5.7086795079   -0.0196037545    3.3256502197
C       -3.8035297694    0.4393802279    1.8532422755
C       -5.8884931014    1.3402007837    3.5782096796
C       -2.6817952987    0.0737946127    0.9489838147
C       -1.0839655371   -1.3696797884   -0.3937241613
C       -2.2076454588   -1.1732093543    0.5384782330
C       -0.1442442150    1.4761999521   -2.3201643456
N       -3.1735411245   -3.4605871267    1.3201319695
N       -0.4793282197   -0.5709315366   -1.2063911282
O       -0.8908688589    0.7771947078   -1.3244422524
Cl      -7.1618710984    1.8910280800    4.6384508644
H       -3.3589751434    2.5486145223    1.6614537240
H       -4.6369975104   -1.5367275879    2.3428253935
H       -5.1576893704    3.3092418560    3.1493781481
H       -6.3710553936   -0.7381488145    3.7947263513
H       -2.1406737461    0.9371367858    0.5936621223
H       -0.7287543831   -2.3910850516   -0.4792650280
H       -0.4465045520    2.5272620418   -2.3369197953
H       -0.3304964131    1.0392104823   -3.3058380858
H        0.9262523939    1.4205198377   -2.0998924792
24   

C       -2.3715542403   -2.2612576559    1.4629268454
C       -4.0559827596    1.8135124788    2.5779816638
C       -4.7299940766   -0.4908598897    2.4822740374
C       -5.3338072543    2.1699798590    3.0233272359
C       -6.0066812800   -0.1277456271    2.9281356324
C       -3.7171108413    0.4769461858    2.2937693047
C       -6.3220228995    1.2027761297    3.2024196543
C       -2.3317506441    0.2071293113    1.8246970911
C       -0.3066549176   -1.1016173049    1.0097831080
C       -1.7047745089   -0.9856679089    1.4557584021
C        1.6022234243    1.9104224387    0.8939236967
N       -2.8637087861   -3.3171068583    1.4502563852
N        0.6380703922   -0.2364984354    0.8541275615
O        0.4291396529    1.1332266146    1.1330471554
Cl      -7.9168886575    1.6467565545    3.7576101404
H       -3.3192616609    2.5988814328    2.4526150737
H       -4.5881482376   -1.5440904775    2.3014380911
H       -5.5647057075    3.2078362876    3.2330098733
H       -6.7645176500   -0.8908861697    3.0636475462
H       -1.7453029360    1.1091334795    1.7710553235
H        0.0129651282   -2.1069811330    0.7568062144
H        1.3975590525    2.9625204917    1.1120829971
H        1.9083569067    1.8200312941   -0.1527383808
H        2.4188189508    1.5688058931    1.5372075638
