29   

C        2.3211057867   -3.3686274014    0.4936383604
C        3.1976453584   -2.5957839739    1.2577988109
C        0.9435868290   -3.2430238836    0.6827602769
C        2.6974110174   -1.7147395468    2.2231506994
C        0.4425072495   -2.3607577879    1.6461627477
C       -0.1672461815   -3.4816188896    5.7576051006
C        0.4169465754   -4.7305283418    5.9804200943
C       -1.1068780949   -4.3127089940    3.6987107020
C        1.3108384069   -1.6114618286    2.4591259217
C       -0.9228784472   -3.2563141854    4.6031102843
C        0.2539773600   -5.7774316532    5.0647313680
C       -0.5210558676   -5.5659984696    3.9101162830
C        0.8672672910   -0.6482524085    3.4698439638
C       -0.3002261262   -0.4753195610    4.1185626354
O       -2.5074724703   -1.6570694780    3.0715131428
O       -2.4743162889   -1.2174591759    5.4655481351
S       -1.6865195499   -1.6291856195    4.2936551413
Cl       1.0098374553   -7.3244945117    5.3779217763
Cl      -0.7659413276   -6.8392959770    2.7341500341
H        2.7070517803   -4.0531527227   -0.2536262470
H        4.2673285173   -2.6786385624    1.1014530012
H        0.2585018980   -3.8202725276    0.0718088867
H        3.3996372480   -1.1242996221    2.8010718940
H       -0.6290679883   -2.2517977259    1.7163942617
H       -0.0352756864   -2.6851753049    6.4849306217
H        1.0046870350   -4.8969478599    6.8753271406
H       -1.7156195521   -4.1654224928    2.8109323691
H        1.6245193336    0.0768639944    3.7501500537
H       -0.4410375816    0.4223635287    4.7014507895
29   

C        2.1688802292   -3.5495386243    0.6788416077
C        3.0575108700   -2.9043831638    1.5425273541
C        0.8158684611   -3.2030148042    0.6903643482
C        2.5900918421   -1.9283867277    2.4300300133
C        0.3477270324   -2.2272636824    1.5771314030
C       -0.1020172880   -3.4278272551    5.7140958272
C        0.5575383158   -4.6455577144    5.8971816135
C       -0.9757491107   -4.2421568835    3.6201311221
C        1.2209392305   -1.6029353583    2.4840970223
C       -0.8618550048   -3.2087313622    4.5613911062
C        0.4670749473   -5.6665048623    4.9426435255
C       -0.3134573250   -5.4627621027    3.7905840188
C        0.7885850688   -0.5637590292    3.4267177528
C       -0.3743241938   -0.4020685206    4.0822573255
O       -2.5491868983   -1.6695101895    3.0815780314
O       -2.4818250189   -1.2443406769    5.4803446191
S       -1.7052153912   -1.6148607617    4.2872243184
Cl       1.3208666439   -7.1717042277    5.2035076581
Cl      -0.4671471092   -6.7030235453    2.5648805821
H        2.5293928708   -4.3082484251   -0.0069669703
H        4.1106285932   -3.1615029012    1.5246823016
H        0.1274767082   -3.6837266048    0.0041722629
H        3.2959880990   -1.4394331569    3.0920901832
H       -0.6968150566   -1.9470205125    1.5292557882
H       -0.0226411851   -2.6497474590    6.4684249533
H        1.1499845011   -4.8070003757    6.7898137016
H       -1.5830569941   -4.0982453317    2.7308950292
H        1.5471182312    0.1750929167    3.6646190965
H       -0.5444106405    0.5068856978    4.6390746306
29   

C        1.9561968974   -3.7059972765    0.8259065714
C        2.8097292467   -3.2501387765    1.8344805810
C        0.7039556750   -3.1103927937    0.6535720769
C        2.4073416923   -2.2072085649    2.6767166036
C        0.2990679360   -2.0713560429    1.4985999358
C       -0.0814564756   -3.3896614903    5.6872869632
C        0.6500723907   -4.5690831568    5.8483977324
C       -0.8614225106   -4.1930688526    3.5525900126
C        1.1372304989   -1.6222771799    2.5329554373
C       -0.8287603796   -3.1823219382    4.5241953391
C        0.6440901627   -5.5632262304    4.8616916060
C       -0.1273762202   -5.3747942098    3.7012047698
C        0.7369044206   -0.5324933946    3.4406843584
C       -0.4296955076   -0.3681635046    4.0831935455
O       -2.5428267413   -1.6866381721    3.0286440917
O       -2.5385378543   -1.2855643112    5.4381432550
S       -1.7298950088   -1.6182706091    4.2550343116
Cl       1.5940100514   -7.0149445685    5.0912419203
Cl      -0.1754947088   -6.5825425716    2.4349110353
H        2.2663074105   -4.5160639866    0.1750869883
H        3.7841236647   -3.7072823076    1.9647941607
H        0.0444090948   -3.4516535786   -0.1366102880
H        3.0796624482   -1.8667731506    3.4561913606
H       -0.6689732006   -1.6086982813    1.3374856691
H       -0.0618331335   -2.6289788296    6.4629364324
H        1.2362616647   -4.7197197938    6.7470091562
H       -1.4528780060   -4.0558589144    2.6517022690
H        1.5124616607    0.1901502522    3.6732381213
H       -0.6194411904    0.5388138105    4.6366027561
29   

C        1.8493086909   -3.7449839571    0.8878279830
C        2.6275754152   -3.3924333678    1.9943836062
C        0.6958149605   -3.0147754731    0.5877888479
C        2.2526323354   -2.3112453346    2.8003170364
C        0.3181205136   -1.9375309791    1.3967658803
C       -0.0753096891   -3.3647824833    5.6565682847
C        0.6763258620   -4.5305399087    5.8257190238
C       -0.7973074298   -4.1710869812    3.5023334433
C        1.0907881315   -1.5767877120    2.5123706319
C       -0.8044608500   -3.1658682126    4.4803092998
C        0.7064001354   -5.5205745994    4.8353707689
C       -0.0472742544   -5.3416981294    3.6617683383
C        0.6919943487   -0.4564548508    3.3922654672
C       -0.4509102876   -0.3416796510    4.0807140972
O       -2.4998462619   -1.6885082460    2.9448850890
O       -2.5822359012   -1.3147775842    5.3596584272
S       -1.7303276177   -1.6177905180    4.1990373065
Cl       1.6796628809   -6.9549653599    5.0760600621
Cl      -0.0531042977   -6.5477776881    2.3928399055
H        2.1377507244   -4.5846896517    0.2652109781
H        3.5200808881   -3.9609426841    2.2301728663
H        0.0894899416   -3.2841666523   -0.2699047256
H        2.8605463453   -2.0530166425    3.6600362049
H       -0.5817791826   -1.3801463355    1.1553681639
H       -0.0843632204   -2.6076485213    6.4358387110
H        1.2494794836   -4.6740579294    6.7339134627
H       -1.3699967012   -4.0376300256    2.5888046044
H        1.4495248308    0.2990933486    3.5739846386
H       -0.6483511444    0.5415504738    4.6686248689
29   

C        2.0856939667   -3.1998487362    0.8069346475
C        2.3648929164   -3.9906101432    1.9258632470
C        1.8303284879   -1.8344282906    0.9658138939
C        2.3931614368   -3.4154900668    3.2016116832
C        1.8569788709   -1.2605265779    2.2416087025
C       -0.8250799075   -3.9153803086    4.9263705445
C       -0.9390963786   -5.1895422686    4.3637095992
C       -1.0250093266   -2.9513932655    2.7253165783
C        2.1472752585   -2.0436623913    3.3688127183
C       -0.8480793590   -2.7828709678    4.1064531833
C       -1.0912101362   -5.3577837140    2.9815104965
C       -1.1440942799   -4.2229891745    2.1527136029
C        2.1380856025   -1.4559277123    4.7318931350
C        1.0608777457   -1.0821932333    5.4302754968
O       -0.8103219671   -0.0837701232    3.7618594443
O       -1.5530407353   -0.9128346379    5.9397569088
S       -0.6372397446   -1.1094040658    4.8050630713
Cl      -1.2096821483   -6.9715298743    2.3147482977
Cl      -1.3421742229   -4.3724589567    0.4196424467
H        2.0587348698   -3.6461393991   -0.1810302897
H        2.5517247629   -5.0516491452    1.8048026713
H        1.6047868070   -1.2193625239    0.1017432760
H        2.5982694616   -4.0400156117    4.0637169599
H        1.6417425299   -0.2027734679    2.3585580184
H       -0.7098088045   -3.8058486944    6.0012286302
H       -0.9084777148   -6.0645276026    5.0020712454
H       -1.0558699127   -2.0804504231    2.0764759709
H        3.0925614159   -1.4344911816    5.2478824874
H        1.1603728060   -0.7205894432    6.4421864468
29   

C        2.1017858786   -3.2791073389    0.8610130179
C        2.2735091355   -4.0141088056    2.0381100512
C        1.9420004168   -1.8913904537    0.9239569079
C        2.2877670053   -3.3612636486    3.2760795398
C        1.9594053875   -1.2395285873    2.1620838068
C       -0.8010661588   -3.9514566462    4.9170034250
C       -0.9098917430   -5.2084256690    4.3152057588
C       -1.0270145467   -2.9207470785    2.7484495732
C        2.1401816937   -1.9678322427    3.3463124774
C       -0.8401630886   -2.7939892975    4.1329138793
C       -1.0742447400   -5.3343765187    2.9297609315
C       -1.1433877489   -4.1746246668    2.1374996967
C        2.1264060470   -1.2895134311    4.6700026622
C        1.0602188145   -1.0368348903    5.4342764506
O       -0.9256165857   -0.0896449539    3.8812649390
O       -1.5326933072   -1.0180129274    6.0589889624
S       -0.6597907230   -1.1384858484    4.8805154113
Cl      -1.1876443139   -6.9271135611    2.2134394989
Cl      -1.3585672674   -4.2710854985    0.4026753904
H        2.0832760181   -3.7853427203   -0.0978277514
H        2.3858638693   -5.0914046599    1.9915228713
H        1.7988175113   -1.3196084456    0.0138434218
H        2.4090730692   -3.9406232184    4.1843477839
H        1.8198359396   -0.1640421588    2.2055679773
H       -0.6808657760   -3.8745852801    5.9942257511
H       -0.8678530165   -6.1029948863    4.9252144052
H       -1.0710798886   -2.0300816848    2.1276472001
H        3.0994515984   -1.0490804093    5.0861569520
H        1.1828067732   -0.6714963568    6.4423187500
29   

C        2.7842393005   -4.2978049673    2.0020202817
C        3.1439517229   -4.1043887029    3.3391361546
C        2.0428001466   -3.3188929133    1.3341144523
C        2.7582741725   -2.9364868623    4.0068926939
C        1.6606573046   -2.1511106890    2.0038210875
C       -0.3997197932   -4.1792691836    3.9959758469
C       -0.7782023012   -4.8745937917    2.8471165289
C       -1.7270234943   -2.2985327285    3.2784255087
C        2.0025143710   -1.9545791265    3.3505991127
C       -0.8581785805   -2.8755728399    4.2145298941
C       -1.6194094655   -4.2878616646    1.8954746455
C       -2.1045616458   -2.9851180790    2.1163698941
C        1.6164645780   -0.7049149725    4.0536402430
C        0.6689720958   -0.5680780713    4.9868592657
O       -1.4480088827   -1.3774540468    6.3998800220
O        0.5566161392   -2.7739481490    6.5353238310
S       -0.2961402619   -1.9355700073    5.6746741408
Cl      -2.0420245665   -5.1817954453    0.4515750620
Cl      -3.1578523113   -2.2034244312    0.9575858091
H        3.0820313141   -5.2024058997    1.4835444111
H        3.7228253543   -4.8578873089    3.8615326879
H        1.7620029161   -3.4637538023    0.2968957877
H        3.0384439339   -2.7959974408    5.0464298664
H        1.0849268189   -1.3989292408    1.4759590070
H        0.2699800241   -4.6464536528    4.7137191995
H       -0.4048066214   -5.8782202324    2.6829235090
H       -2.1060244339   -1.2941403040    3.4418527470
H        2.0793142717    0.2060673787    3.6880101936
H        0.4286999988    0.4030034209    5.3917991004
29   

C        2.8420290927   -4.2878872450    2.0191269616
C        3.0650950042   -4.1117206570    3.3876535859
C        2.2010928279   -3.2852959568    1.2859656281
C        2.6400282118   -2.9390194823    4.0219433503
C        1.7822262606   -2.1109297771    1.9214186031
C       -0.4134773876   -4.1908658654    3.9919496778
C       -0.8053304735   -4.8709668399    2.8384599782
C       -1.7314123522   -2.2930424316    3.3037038811
C        1.9831324431   -1.9310626064    3.2986739001
C       -0.8591416827   -2.8856523334    4.2265197687
C       -1.6502835171   -4.2684237551    1.8999954669
C       -2.1245090232   -2.9648946812    2.1386117491
C        1.5350846803   -0.6883072074    3.9660982485
C        0.6707270690   -0.5830064508    4.9832800024
O       -1.4141679495   -1.4077734646    6.4347389817
O        0.5944497246   -2.8002537996    6.5266617626
S       -0.2741959785   -1.9583291742    5.6855617199
Cl      -2.0924782342   -5.1444381756    0.4510090979
Cl      -3.1832530653   -2.1638179323    0.9981829878
H        3.1686584466   -5.1972172741    1.5269517542
H        3.5683980651   -4.8822055749    3.9610838860
H        2.0267226481   -3.4172255266    0.2239818296
H        2.8208271336   -2.8138294010    5.0851887183
H        1.2828756050   -1.3426959381    1.3414892446
H        0.2569669296   -4.6710680056    4.7002779064
H       -0.4408775087   -5.8755543139    2.6605908467
H       -2.1007178155   -1.2872360234    3.4800338757
H        1.8678019358    0.2398764346    3.5126990320
H        0.4443725192    0.3806931586    5.4132172112
29   

C        2.9325945287   -4.2223877768    1.9830642876
C        2.9730221151   -4.1087356485    3.3748223515
C        2.4357657513   -3.1656757487    1.2161441393
C        2.5064765156   -2.9457302140    3.9975422686
C        1.9759456963   -2.0009157255    1.8407918318
C       -0.4736982739   -4.1801263249    4.0688415315
C       -0.8826160246   -4.8976161144    2.9442358642
C       -1.7559501257   -2.2855944629    3.3084790645
C        1.9906428089   -1.8803797955    3.2396474813
C       -0.8927745020   -2.8579834433    4.2520712689
C       -1.7209765666   -4.3170948107    1.9859959559
C       -2.1681906964   -2.9958647136    2.1735340914
C        1.4740279099   -0.6565091255    3.8779540664
C        0.6641752122   -0.5463310133    4.9421104181
O       -1.4400729229   -1.2984338000    6.4022877685
O        0.5438391222   -2.7135049547    6.5600361487
S       -0.3024134525   -1.8885734035    5.6804669916
Cl      -2.1920521601   -5.2436415289    0.5781119338
Cl      -3.2203345892   -2.2217010247    1.0086820869
H        3.2908087931   -5.1244082879    1.4994700223
H        3.3695354354   -4.9195976794    3.9756584674
H        2.4045267984   -3.2485085631    0.1355035643
H        2.5632155263   -2.8710060206    5.0782841777
H        1.5872279355   -1.1931856483    1.2305992118
H        0.1851992460   -4.6470092136    4.7966343860
H       -0.5405385478   -5.9162575016    2.8059872039
H       -2.1067683689   -1.2673108819    3.4468310236
H        1.7284999954    0.2725779453    3.3780635486
H        0.4627873717    0.4238068046    5.3702007435
29   

C        3.0311029812   -4.0356192230    1.7308763766
C        2.7668575999   -4.1489317128    3.0967165225
C        2.8151584025   -2.8172459143    1.0851610208
C        2.2771234725   -3.0503917830    3.8117232414
C        2.3273741096   -1.7196286617    1.8028400027
C       -0.6809706489   -4.3045539722    4.3289114072
C       -1.1069649173   -5.1030648922    3.2667027811
C       -1.5985502382   -2.3689659393    3.2218571557
C        2.0358168978   -1.8186730847    3.1748676121
C       -0.9119202681   -2.9244263725    4.3098442313
C       -1.7730352267   -4.5457030204    2.1693002928
C       -2.0244465584   -3.1611735697    2.1480494234
C        1.4875024921   -0.6491378751    3.8708062028
C        0.6529315345   -0.5596063127    4.9213517992
O       -1.4817946727   -1.2533558127    6.3615686337
O        0.4851415990   -2.6583052146    6.6254114502
S       -0.3335242344   -1.8744059600    5.6846404823
Cl      -2.2801763081   -5.5804667316    0.8521666025
Cl      -2.8559118538   -2.4117912918    0.8025355700
H        3.4087480080   -4.8872298333    1.1759363985
H        2.9486093396   -5.0874787009    3.6080049306
H        3.0231113416   -2.7223524878    0.0252675529
H        2.1193516311   -3.1648296286    4.8761098566
H        2.1595858909   -0.7860211489    1.2773903776
H       -0.1648716762   -4.7576175748    5.1719370150
H       -0.9193198319   -6.1699825305    3.2890727343
H       -1.8032202103   -1.3031164180    3.1987761423
H        1.7699426229    0.3053253756    3.4381211214
H        0.4545118058    0.4105883977    5.3512341544
29   

C        3.3401750043   -3.9371690947    1.7036933648
C        2.8290906112   -4.1452783250    2.9848390231
C        3.2514622139   -2.6713136109    1.1250678831
C        2.2226000431   -3.0939809021    3.6813657899
C        2.6453904035   -1.6215416379    1.8235934984
C       -0.7903681317   -4.3425774595    4.3925402461
C       -1.3007388301   -5.1621997817    3.3846207302
C       -1.7295936055   -2.4194514473    3.2816392129
C        2.1088345871   -1.8098534557    3.1117901053
C       -0.9909287421   -2.9582788466    4.3439044868
C       -2.0228033414   -4.6223968156    2.3139478821
C       -2.2415426046   -3.2332059572    2.2630309843
C        1.4424836690   -0.6768155944    3.7569882841
C        0.6016603581   -0.5815683806    4.8046188615
O       -1.4359302094   -1.2463534039    6.3876860970
O        0.5432506778   -2.6448622382    6.5679305655
S       -0.3280502033   -1.8812660761    5.6585468949
Cl      -2.6414804799   -5.6845395362    1.0681032299
Cl      -3.1421265275   -2.5049802410    0.9506281588
H        3.8089364614   -4.7524549521    1.1638618622
H        2.9094198501   -5.1225936573    3.4471282110
H        3.6498778973   -2.5018523808    0.1309901744
H        1.8811116655   -3.2980875015    4.6841400512
H        2.5823146225   -0.6513072590    1.3434560944
H       -0.2382795523   -4.7835818507    5.2191226368
H       -1.1394049082   -6.2327543208    3.4303579675
H       -1.9132647936   -1.3503605557    3.2375430190
H        1.6736209518    0.2824257638    3.3049721525
H        0.3584263549    0.4007675073    5.1808328034
29   

C        2.8480526033   -2.1971709977    0.3984259109
C        1.4891729214   -2.1449150446    0.7055767629
C        3.7858497379   -1.8898921061    1.3826786425
C        1.0691152271   -1.7926639028    1.9932226473
C        3.3631252041   -1.5377501275    2.6689561319
C       -0.7055026891   -4.1822607083    5.3657358912
C       -0.6457499893   -5.5564118773    5.1243424932
C       -1.4842694546   -3.8392525281    3.1099222857
C        1.9959776804   -1.4836688375    3.0097179211
C       -1.1104048423   -3.3064487632    4.3528729611
C       -0.9944704515   -6.0851800031    3.8759025597
C       -1.4223740432   -5.2150696247    2.8565735711
C        1.6517682300   -1.1550317751    4.3938911743
C        0.5039679391   -1.0449878674    5.0926639046
O       -1.6801747430   -0.7842277783    3.4788798514
O       -2.0400779227   -1.2591745691    5.8407158730
S       -1.1940953004   -1.5098915016    4.6639689996
Cl      -0.8991754282   -7.8129636972    3.6130459694
Cl      -1.8812443692   -5.8211709233    1.2798438706
H        3.1720854638   -2.4714351199   -0.5993986410
H        0.7534698958   -2.3735329011   -0.0574361378
H        4.8444130713   -1.9265963132    1.1510192626
H        0.0082072048   -1.7498773368    2.1582478977
H        4.1205822149   -1.3122304556    3.4113139627
H       -0.4402676436   -3.7954287277    6.3459771732
H       -0.3281308179   -6.2277075405    5.9135667796
H       -1.8368094797   -3.1804195686    2.3211821551
H        2.5178881812   -0.9049203951    4.9978763612
H        0.5599293238   -0.6452381992    6.0939754209
29   

C        2.5728952285   -2.6869738436    0.6604568849
C        1.2551974602   -2.2946698319    0.8955287548
C        3.5366083219   -2.4882324269    1.6490205813
C        0.9003021654   -1.7157603927    2.1189710360
C        3.1788028642   -1.9100357823    2.8719281191
C       -0.3637796528   -4.1299836009    5.3967769284
C       -0.1268526546   -5.4714493617    5.0886029070
C       -1.2993322891   -3.8125626904    3.1975457048
C        1.8521548331   -1.5215584822    3.1399369982
C       -0.9384195416   -3.2822050728    4.4451066530
C       -0.4631287720   -5.9941600229    3.8337389974
C       -1.0601198863   -5.1536604666    2.8768380507
C        1.5406387527   -0.9859316772    4.4666903558
C        0.3870297600   -0.8071182444    5.1389706228
O       -1.9190979070   -0.8513679377    3.7058291197
O       -2.0314362432   -1.4196446955    6.0693560927
S       -1.2476857916   -1.5261782142    4.8293050644
Cl      -0.1409992091   -7.6786450156    3.4851432142
Cl      -1.5081788399   -5.7527134712    1.2942868948
H        2.8468189864   -3.1374717954   -0.2871390286
H        0.5045072870   -2.4310074600    0.1250447229
H        4.5634622403   -2.7870053121    1.4704795690
H       -0.1207234449   -1.3875185328    2.2348552863
H        3.9474491756   -1.7800309088    3.6255970245
H       -0.1025086483   -3.7465485311    6.3793286518
H        0.3224325830   -6.1218370404    5.8296417238
H       -1.7749908235   -3.1765084967    2.4561289044
H        2.4136710167   -0.6551222701    5.0199801864
H        0.4064533117   -0.2264785156    6.0488941727
29   

C        2.3645079152   -2.8798527004    0.7576435666
C        1.1389515359   -2.2313819865    0.9158899324
C        3.3017699926   -2.8455320161    1.7913473102
C        0.8467038009   -1.5625741660    2.1097194451
C        3.0073348044   -2.1749111999    2.9837687652
C       -0.2809325999   -4.0861548402    5.3910573370
C        0.0413724202   -5.4053755111    5.0638382201
C       -1.1408651743   -3.7675274141    3.1617001052
C        1.7694638624   -1.5350269365    3.1722012215
C       -0.8596779017   -3.2479942953    4.4337167677
C       -0.2120430360   -5.9145080513    3.7839238268
C       -0.8147691292   -5.0848870435    2.8214301346
C        1.4908088535   -0.8916382573    4.4613580667
C        0.3362431087   -0.7085524134    5.1266550653
O       -1.9694298449   -0.8701253983    3.7116313258
O       -2.0408320256   -1.4509163084    6.0762592297
S       -1.2606640060   -1.5135564360    4.8307760563
Cl       0.2209961435   -7.5684421662    3.4103715826
Cl      -1.1586527497   -5.6662238807    1.2064991036
H        2.5892543164   -3.4016177645   -0.1660349317
H        0.4134566057   -2.2401780530    0.1100578701
H        4.2575112110   -3.3430970289    1.6708946340
H       -0.0969070522   -1.0379736702    2.1829638793
H        3.7471955389   -2.1711084348    3.7764130008
H       -0.0801158006   -3.7113451130    6.3909917646
H        0.4951896610   -6.0482522439    5.8085481331
H       -1.6146344194   -3.1378632942    2.4137722460
H        2.3719191188   -0.5324468491    4.9833318057
H        0.3307972052   -0.0827031150    6.0061523693
29   

C        2.1164424991   -2.9671628496    0.8096529528
C        1.0720998719   -2.0443170849    0.9009650919
C        2.9546906561   -3.1751839113    1.9074968453
C        0.8578452998   -1.3431125841    2.0927729486
C        2.7426978126   -2.4678391381    3.0963206262
C       -0.2588029309   -4.0404767969    5.3862536681
C        0.1459978814   -5.3373800179    5.0604548767
C       -0.9844100037   -3.7204172991    3.1099180435
C        1.6814244415   -1.5556637811    3.2119421285
C       -0.8098943603   -3.2113966496    4.4048959361
C        0.0021896942   -5.8332201252    3.7583945987
C       -0.5766664753   -5.0153406482    2.7717541737
C        1.4503236379   -0.8541780291    4.4870516315
C        0.2923686732   -0.6566461929    5.1360410143
O       -1.9512679866   -0.8616114497    3.6377531857
O       -2.1048397377   -1.4454524505    6.0039984337
S       -1.2784869871   -1.4897871858    4.7876603396
Cl       0.5440190897   -7.4550538159    3.3861671756
Cl      -0.7843170873   -5.5811274778    1.1282151534
H        2.2772089416   -3.5174461153   -0.1108246899
H        0.4251149229   -1.8704552888    0.0483168394
H        3.7677521831   -3.8890878181    1.8388871990
H        0.0500896429   -0.6203461548    2.1371971749
H        3.3977592280   -2.6480965175    3.9412469696
H       -0.1371491100   -3.6732529217    6.4016399597
H        0.5821723641   -5.9718969754    5.8226566487
H       -1.4294952395   -3.0956510391    2.3406231952
H        2.3443819037   -0.5142512325    4.9997532247
H        0.2647019337   -0.0231298123    6.0094218397
29   

C        2.0168321419   -2.9815993860    0.8346133761
C        1.1097863964   -1.9190011489    0.8661417920
C        2.7410273201   -3.3101606993    1.9837727975
C        0.9200584754   -1.1942870457    2.0480045003
C        2.5541334100   -2.5801324134    3.1630549146
C       -0.2660111357   -4.0113332447    5.3818395020
C        0.1588097037   -5.3058058283    5.0713892611
C       -0.9148092987   -3.6978557654    3.0811641249
C        1.6295380704   -1.5256280174    3.2132946678
C       -0.7894646695   -3.1869553675    4.3812572040
C        0.0601791617   -5.8048147385    3.7663460056
C       -0.4915058326   -4.9923929180    2.7598441772
C        1.4232965841   -0.7666093958    4.4665115469
C        0.2768085410   -0.6301812098    5.1448541026
O       -1.9047153346   -0.8409930651    3.5644972673
O       -2.1498543708   -1.4205428792    5.9272339358
S       -1.2785790869   -1.4656489734    4.7425492299
Cl       0.6252985875   -7.4233303951    3.4145949653
Cl      -0.6453916946   -5.5647032385    1.1125636168
H        2.1577541618   -3.5494711701   -0.0784118155
H        0.5490240491   -1.6564543805   -0.0240439979
H        3.4450372230   -4.1343538932    1.9618722230
H        0.2119683491   -0.3713225328    2.0583748298
H        3.1186079969   -2.8488518533    4.0487926444
H       -0.1797014281   -3.6418829338    6.4000170958
H        0.5749986052   -5.9361810071    5.8481391488
H       -1.3324944328   -3.0744387856    2.2955357185
H        2.3176641892   -0.3673846722    4.9338838390
H        0.2385105064   -0.0247282139    6.0374201475
29   

C        1.9838140214   -3.0029687443    0.8756447674
C        1.1715329440   -1.8661186069    0.8375926496
C        2.6009709425   -3.3754983756    2.0730635229
C        0.9729124730   -1.1076883991    1.9966991920
C        2.4021239431   -2.6139137721    3.2301730222
C       -0.2593170654   -4.0235565791    5.3995770690
C        0.1639013694   -5.3151097085    5.0741199960
C       -0.9079005834   -3.6829770185    3.1022659776
C        1.5741603006   -1.4811642216    3.2071219398
C       -0.7827169402   -3.1873997819    4.4085306710
C        0.0618229840   -5.8000776200    3.7640043918
C       -0.4898237438   -4.9759121834    2.7670662495
C        1.3733435136   -0.6667190348    4.4319323276
C        0.2687478577   -0.6225120063    5.1838498702
O       -1.9164608760   -0.8435376887    3.6182616068
O       -2.1434713573   -1.4432722436    5.9792087040
S       -1.2795987806   -1.4720884763    4.7884828298
Cl       0.6233915873   -7.4157631216    3.3938372253
Cl      -0.6496534330   -5.5318084872    1.1146528086
H        2.1329570432   -3.5953009672   -0.0203822853
H        0.6915692425   -1.5720595649   -0.0891912019
H        3.2303247547   -4.2576828981    2.1057214486
H        0.3352838011   -0.2297104250    1.9588874636
H        2.8837081998   -2.9136045610    4.1540807744
H       -0.1726755073   -3.6661413613    6.4220243229
H        0.5802472973   -5.9548351043    5.8431699240
H       -1.3223569658   -3.0488758238    2.3233863052
H        2.2486997336   -0.1475008324    4.8086222808
H        0.2451987720   -0.0446706475    6.0949715654
29   

C        1.9992901879   -3.1055542394    0.9060218629
C        1.2675658846   -1.9232935575    0.7622130952
C        2.5001077062   -3.4636178570    2.1606754811
C        1.0360326527   -1.1028048521    1.8720927091
C        2.2646108839   -2.6421886977    3.2688521603
C       -0.2237857353   -4.0637244559    5.3685267978
C        0.1849105486   -5.3456865883    4.9897002947
C       -0.9568249652   -3.6560113147    3.1073559202
C        1.5203713477   -1.4595771127    3.1377556883
C       -0.7822059936   -3.1987072988    4.4220581471
C        0.0321131968   -5.7925477739    3.6708347342
C       -0.5554836934   -4.9395552130    2.7197175401
C        1.2976309745   -0.5725293548    4.3104135501
C        0.2614730286   -0.5972849427    5.1532333188
O       -2.0300551228   -0.8754369153    3.7674909431
O       -2.0476485918   -1.5131257032    6.1268723060
S       -1.2813232697   -1.5010273273    4.8707028787
Cl       0.5762656548   -7.3971388169    3.2327325166
Cl      -0.7802356033   -5.4478052813    1.0594936617
H        2.1756411893   -3.7443657224    0.0476530650
H        0.8774665065   -1.6416153378   -0.2094825495
H        3.0666686803   -4.3807562202    2.2758002594
H        0.4642347563   -0.1880885988    1.7523832432
H        2.6565411244   -2.9291753051    4.2380575917
H       -0.1015726838   -3.7373748287    6.3977929048
H        0.6278030899   -6.0084803202    5.7236292699
H       -1.3997595269   -2.9993942704    2.3635225696
H        2.1048593644    0.1151464260    4.5413125623
H        0.2699816012    0.0014523668    6.0510573865
29   

C        3.0377556923   -3.5120352582    2.1390128142
C        1.9443534712   -3.0671874766    1.3891168650
C        3.3246947614   -2.9166886229    3.3714983566
C        1.1432099450   -2.0243885056    1.8682491589
C        2.5215253576   -1.8759454732    3.8511067832
C        0.1970494764   -4.2875156129    4.3837390355
C        0.1142324895   -5.3001375425    3.4274782017
C       -1.8100581895   -3.2963573871    3.4880142142
C        1.4311536507   -1.4136391991    3.0994111207
C       -0.7573753610   -3.2650561774    4.4127229816
C       -0.9179751713   -5.3151720075    2.4831146767
C       -1.8956888601   -4.3031578087    2.5167944401
C        0.5522199119   -0.3315478905    3.6110391879
C       -0.3455938780   -0.4263983433    4.5971876953
O       -1.8632217171   -1.7351663388    6.3615410063
O        0.5490984604   -2.1147369638    6.5029020453
S       -0.6066009071   -1.8998834313    5.6145870960
Cl      -0.9658748141   -6.5846928585    1.2795544378
Cl      -3.2070860836   -4.2732358294    1.3580988469
H        3.6596501272   -4.3186723626    1.7670444319
H        1.7133745367   -3.5330054163    0.4376545603
H        4.1679531909   -3.2613019551    3.9596493050
H        0.2913179807   -1.6948230175    1.2838513629
H        2.7417130461   -1.4279781394    4.8153261479
H        1.0172492830   -4.2844275382    5.0972909078
H        0.8670380882   -6.0789335332    3.4076984464
H       -2.5693297239   -2.5203516825    3.5085283581
H        0.5661536403    0.5960560741    3.0478740988
H       -0.9789893968    0.4108188453    4.8473979962
29   

C        3.0830868387   -3.4990716681    2.1252168253
C        2.0596537274   -3.0155316267    1.3043863752
C        3.2575755184   -2.9663687373    3.4060072577
C        1.2137728298   -1.9989771614    1.7625588275
C        2.4078336517   -1.9543821484    3.8660844096
C        0.1762301146   -4.3080023410    4.4086895473
C        0.0878303597   -5.3159740581    3.4480928622
C       -1.8252810455   -3.3022587402    3.5173546755
C        1.3783338008   -1.4600618123    3.0493728685
C       -0.7709438176   -3.2788966984    4.4401122937
C       -0.9455948617   -5.3222707380    2.5049113344
C       -1.9185155183   -4.3059482428    2.5440348396
C        0.4625115355   -0.3997601923    3.5265953024
C       -0.3440239897   -0.4472087316    4.5943177991
O       -1.8555811265   -1.7278266884    6.3856873229
O        0.5545444525   -2.1209483997    6.5166504081
S       -0.6047056959   -1.9073326359    5.6327063602
Cl      -1.0015313164   -6.5868429932    1.2965311759
Cl      -3.2324887472   -4.2657141973    1.3886033129
H        3.7406517383   -4.2841537970    1.7687780537
H        1.9195707885   -3.4293683038    0.3120642535
H        4.0513339778   -3.3352817432    4.0460429196
H        0.4197143138   -1.6374402228    1.1186668542
H        2.5515867470   -1.5494456260    4.8631908699
H        0.9967772233   -4.3124116969    5.1217753598
H        0.8368438265   -6.0983060075    3.4239430093
H       -2.5790722900   -2.5210041084    3.5401149337
H        0.3637554994    0.4670167288    2.8810286775
H       -0.9468454293    0.4063281363    4.8642960205
29   

C        3.1719905322   -3.4124615704    2.0457273522
C        2.2484880466   -2.8233206419    1.1775010513
C        3.2086258957   -3.0250853256    3.3880306347
C        1.3589735640   -1.8526162543    1.6520216687
C        2.3154815840   -2.0590300056    3.8640889064
C        0.1125323047   -4.3351832761    4.4529798796
C        0.0099480622   -5.3591272647    3.5108148586
C       -1.8642541425   -3.3084027871    3.5312458546
C        1.3698433411   -1.4732091673    3.0057975980
C       -0.8148823046   -3.2876636499    4.4594447319
C       -1.0202334486   -5.3650082426    2.5639002618
C       -1.9733377657   -4.3295096621    2.5782602441
C        0.4228466449   -0.4465999240    3.4780043970
C       -0.3341251942   -0.4599271462    4.5854622072
O       -1.9005229618   -1.6896532078    6.3638161630
O        0.4949804679   -2.1304335948    6.5465022244
S       -0.6405047709   -1.9036316149    5.6356852459
Cl      -1.0991078943   -6.6551380119    1.3841000725
Cl      -3.2842757085   -4.2890375199    1.4193722731
H        3.8633225293   -4.1621163329    1.6770631233
H        2.2215848667   -3.1182679073    0.1344903499
H        3.9331876353   -3.4675314615    4.0625770130
H        0.6475073711   -1.4059143370    0.9663631147
H        2.3729110467   -1.7557313169    4.9042067722
H        0.9265154985   -4.3446019057    5.1734931512
H        0.7427151873   -6.1571224159    3.5060938249
H       -2.6040633045   -2.5135646520    3.5363139407
H        0.2678401739    0.3915676889    2.8062017006
H       -0.9041992175    0.4135116806    4.8630856352
29   

C        3.2182600305   -3.2031340574    1.8155345181
C        2.4551920117   -2.3906423360    0.9733758945
C        3.0664608870   -3.1026353769    3.2005238258
C        1.5313385569   -1.4898784386    1.5150425883
C        2.1421068876   -2.2034317536    3.7432445849
C       -0.0131903302   -4.4293137125    4.7407192159
C       -0.0992331646   -5.5363264058    3.8953856869
C       -1.7697369659   -3.3544807422    3.4865705844
C        1.3408195966   -1.4058988107    2.9079785998
C       -0.8410611840   -3.3199552088    4.5353990139
C       -1.0113237026   -5.5625500915    2.8342320943
C       -1.8593025339   -4.4583192801    2.6288766077
C        0.3671113208   -0.4334560458    3.4188229611
C       -0.4028945394   -0.4581983779    4.5205270722
O       -1.9981264056   -1.6308793305    6.3067184003
O        0.3872665406   -2.0234275877    6.5849285177
S       -0.7165598461   -1.8611300332    5.6231609230
Cl      -1.0795404575   -6.9656598726    1.7904442332
Cl      -3.0205213944   -4.4387588258    1.3194375090
H        3.9343000054   -3.9011119589    1.3960661384
H        2.5796684836   -2.4582318774   -0.1015769163
H        3.6736508011   -3.7140599544    3.8584837638
H        0.9493132318   -0.8680772458    0.8438573369
H        2.0801117389   -2.1177348869    4.8205065826
H        0.7022582301   -4.4296070394    5.5594388873
H        0.5492704397   -6.3885154250    4.0603400267
H       -2.4333467042   -2.5106861700    3.3245216664
H        0.2091026326    0.4280592720    2.7778566975
H       -0.9840051977    0.4146445016    4.7770788747
29   

C        3.4644515847   -3.0040200679    1.7384807594
C        2.7936316094   -2.0827123458    0.9321376007
C        3.1291804543   -3.1138848814    3.0893055769
C        1.7791146221   -1.2848498101    1.4726140760
C        2.1147172593   -2.3167668580    3.6309891717
C       -0.0958850561   -4.4993751941    4.8057521308
C       -0.2640597303   -5.6466501089    4.0287229799
C       -1.8987879989   -3.4414084028    3.6039243526
C        1.4007154955   -1.4117926201    2.8253416686
C       -0.9063767900   -3.3787360645    4.5914576985
C       -1.2430021249   -5.7030399582    3.0298663009
C       -2.0724103086   -4.5864824735    2.8162896543
C        0.3485800079   -0.5186111927    3.3172241204
C       -0.4185660792   -0.5318434065    4.4236353826
O       -1.9451086601   -1.5909346947    6.3321168286
O        0.4406715161   -2.0191158854    6.5261624867
S       -0.6993993811   -1.8764783022    5.6047001059
Cl      -1.4184058539   -7.1593213923    2.0751281927
Cl      -3.3172879926   -4.6040584622    1.5859299830
H        4.2515517397   -3.6220980774    1.3209516029
H        3.0610441806   -1.9845074676   -0.1140207634
H        3.6660685391   -3.8085494225    3.7254047075
H        1.2766637737   -0.5750114931    0.8248893253
H        1.9285829566   -2.3984449163    4.6908169862
H        0.6649785404   -4.4806636732    5.5822796385
H        0.3691082553   -6.5089631350    4.2009977675
H       -2.5517585909   -2.5897266716    3.4391237845
H        0.1435537291    0.3236467312    2.6641728764
H       -1.0309869519    0.3310604968    4.6379632513
29   

C        2.4739065433   -3.0678301943    0.1952366419
C        3.2866181353   -2.1546218678    0.8678096448
C        1.1468382101   -3.2340570629    0.5932735601
C        2.7752897848   -1.4186723338    1.9424313075
C        0.6340859621   -2.4980814183    1.6673182930
C       -0.3583494552   -3.5527128065    5.8187666223
C        0.0895296100   -4.8364493200    6.1380738309
C       -1.3008781147   -4.4123529069    3.7727842357
C        1.4434006004   -1.5927882359    2.3768946470
C       -1.0456008651   -3.3249170924    4.6219154043
C       -0.1443936003   -5.9167651108    5.2788076857
C       -0.8517504914   -5.7019446430    4.0819554546
C        1.0039482807   -0.7582949509    3.4965637351
C       -0.1472019334   -0.6230432418    4.1848405518
O       -2.3137414940   -1.6453183123    2.8878425354
O       -2.5197767880   -1.1583401940    5.2648060187
S       -1.6382746546   -1.6519674555    4.1960088421
Cl       0.4393347672   -7.5083753523    5.7140071892
Cl      -1.1823676940   -7.0168024857    2.9747471811
H        2.8675178481   -3.6384506988   -0.6386427195
H        4.3151048542   -2.0141420249    0.5547456719
H        0.5057739768   -3.9285029698    0.0617165372
H        3.4320039964   -0.7141142090    2.4404457933
H       -0.4053272054   -2.6419187460    1.9020339590
H       -0.1738883747   -2.7313758592    6.5058242866
H        0.6243070732   -5.0043025042    7.0655230997
H       -1.8625461098   -4.2626160127    2.8546725679
H        1.7612799622   -0.0579831326    3.8335796647
H       -0.2261792127    0.1944494075    4.8856010256
