19   
Generated by ForceBalance from scan.xyz: Frame 1 of 24
C        2.1034231384   -0.9355852905   -0.0555942667
C        2.5438159220   -1.7474874961    2.1834121949
C        0.8799089009   -0.4094729927    0.3705223058
C        1.3305516260   -1.2175891167    2.6217977255
C        2.9573003992   -1.5946225116    0.8479870233
C        0.5198815985   -0.5517900297    1.7054305085
C        4.9661859501   -1.4758033305   -0.2755387279
C        7.0577981384   -1.0869901646   -1.2843194901
N        4.1933333400   -2.1551980225    0.4673393602
O        6.1094095003   -2.0190355098   -0.7475905786
F       -0.6702849840   -0.0432810852    2.1262048697
H        2.3787765750   -0.8664875593   -1.1045159724
H        3.1929181148   -2.2816969853    2.8706673138
H        0.2075897446    0.0917896983   -0.3192211462
H        1.0064935163   -1.3205587957    3.6529450585
H        4.7843544834   -0.4346636806   -0.5830035403
H        7.8422667870   -1.6855814231   -1.7472405504
H        7.4894403718   -0.4698157816   -0.4887634191
H        6.5972704292   -0.4432968118   -2.0432268945
19   
Generated by ForceBalance from scan.xyz: Frame 2 of 24
C        2.0547916187   -0.9787075433   -0.0703348360
C        2.5823969206   -1.6963209963    2.1819405590
C        0.8384485656   -0.4527996189    0.3760191107
C        1.3771466028   -1.1655966510    2.6406906356
C        2.9482512767   -1.5900579207    0.8282698619
C        0.5263946614   -0.5474659551    1.7271484670
C        4.9107674972   -1.4913217318   -0.3759175881
C        7.0832475145   -1.1117373070   -1.1938230157
N        4.1810588413   -2.1463625182    0.4299234718
O        6.0360502960   -2.0411850492   -0.8849600964
F       -0.6561403685   -0.0392109415    2.1685704681
H        2.2938997963   -0.9474937786   -1.1298232327
H        3.2617657464   -2.1949213396    2.8667197327
H        0.1358730423    0.0118410656   -0.3091975020
H        1.0892940108   -1.2323676227    3.6854588946
H        4.7064150617   -0.4623725737   -0.7113845952
H        7.8236128215   -1.6642022596   -1.7726089888
H        7.5417633932   -0.7325141248   -0.2742306500
H        6.7072420301   -0.2716549180   -1.7913539993
19   
Generated by ForceBalance from scan.xyz: Frame 3 of 24
C        2.0116072458   -1.0113649504   -0.0964475672
C        2.6388515974   -1.6509864609    2.1548662232
C        0.8022232725   -0.4976933445    0.3816183537
C        1.4411485713   -1.1304868683    2.6440406859
C        2.9499630108   -1.5773660496    0.7856290650
C        0.5434320547   -0.5576858076    1.7460216123
C        4.8618060568   -1.4790972933   -0.4989327935
C        7.1017264070   -1.1287343187   -1.1055079994
N        4.1797024972   -2.1203527489    0.3578219043
O        5.9797559599   -2.0198664023   -1.0398750968
F       -0.6321003231   -0.0608775328    2.2173336048
H        2.2103958615   -1.0068053973   -1.1646315803
H        3.3537054135   -2.1159026244    2.8271505067
H        0.0643331327   -0.0680860137   -0.2891344598
H        1.1943630514   -1.1716423024    3.7005484720
H        4.6282996145   -0.4607787931   -0.8492042416
H        7.8550498776   -1.6246564920   -1.7180344886
H        7.5004394162   -0.9467036115   -0.1017317276
H        6.8251577896   -0.1729487175   -1.5700792241
19   
Generated by ForceBalance from scan.xyz: Frame 4 of 24
C        1.9616032367   -1.0365532147   -0.1243455617
C        2.6915688927   -1.6031682862    2.1158033190
C        0.7589754143   -0.5408128825    0.3879411245
C        1.5013479532   -1.0986969305    2.6390347614
C        2.9466672012   -1.5568737444    0.7341833025
C        0.5554254281   -0.5716775544    1.7627955125
C        4.8061411132   -1.4479868505   -0.6266146732
C        7.0992880176   -1.1649226541   -1.0138884791
N        4.1728063948   -2.0815365470    0.2716361745
O        5.9251347651   -1.9704082922   -1.1922987636
F       -0.6128964421   -0.0917464857    2.2673638452
H        2.1195514691   -1.0539501467   -1.1991262794
H        3.4431199537   -2.0338204082    2.7706803674
H       -0.0151200633   -0.1468000393   -0.2635538425
H        1.2968228789   -1.1183151887    3.7051297319
H        4.5343735017   -0.4445178930   -0.9920466349
H        7.8796495171   -1.6151219078   -1.6281565321
H        7.4036183348   -1.1697291000    0.0384005757
H        6.9273152083   -0.1307236262   -1.3421947001
19   
Generated by ForceBalance from scan.xyz: Frame 5 of 24
C        1.9143618808   -1.0549372946   -0.1524774312
C        2.7445485964   -1.5443063886    2.0712681954
C        0.7159502444   -0.5861230335    0.3933344806
C        1.5587652029   -1.0647931845    2.6273713987
C        2.9461099725   -1.5228297665    0.6806050150
C        0.5644871873   -0.5898241556    1.7754046151
C        4.7559928452   -1.3871389622   -0.7462887450
C        7.0869956487   -1.2158015780   -0.9236942018
N        4.1702728858   -2.0213269203    0.1825542591
O        5.8819669238   -1.8812849157   -1.3327671261
F       -0.5992124911   -0.1349114801    2.3120357928
H        2.0340133409   -1.0919953059   -1.2316457618
H        3.5331783543   -1.9353668316    2.7071367562
H       -0.0941546750   -0.2328187185   -0.2373449546
H        1.3945123557   -1.0648682059    3.7005659031
H        4.4330873146   -0.4073704031   -1.1321736200
H        7.8923130138   -1.6395154911   -1.5247453396
H        7.2773109605   -1.3997327345    0.1393701720
H        7.0261076011   -0.1340744755   -1.1056202166
19   
Generated by ForceBalance from scan.xyz: Frame 6 of 24
C        1.8512769285   -1.0820503767   -0.2132621517
C        2.7486777169   -1.4924228856    2.0000810458
C        0.6497769410   -0.6437963678    0.3504262112
C        1.5595676786   -1.0422757136    2.5738026999
C        2.9173924205   -1.4951827501    0.6052261432
C        0.5298711321   -0.6218525194    1.7355638312
C        4.6978024679   -1.3274059387   -0.8588350936
C        7.0517516773   -1.3436071899   -0.8521763483
N        4.1441706059   -1.9663648772    0.0859636765
O        5.8301452393   -1.7939610850   -1.4612002414
F       -0.6366715869   -0.1959738332    2.2892409961
H        1.9482170695   -1.1373114471   -1.2939039915
H        3.5647541236   -1.8415077654    2.6256898700
H       -0.1863861038   -0.3329280529   -0.2684537146
H        1.4200568302   -1.0240250921    3.6503301409
H        4.3237422752   -0.3795998133   -1.2740598699
H        7.8632403946   -1.7731971479   -1.4407817405
H        7.1130489427   -1.6970003273    0.1826917022
H        7.1237019055   -0.2482396083   -0.8752584617
19   
Generated by ForceBalance from scan.xyz: Frame 7 of 24
C        1.8405991738   -1.0954654793   -0.2162542666
C        2.8018244765   -1.4078248033    1.9859481358
C        0.6277696814   -0.7119817450    0.3627315450
C        1.6005360592   -1.0120557645    2.5746018047
C        2.9434905358   -1.4321744067    0.5884655413
C        0.5331031388   -0.6673022037    1.7493319796
C        4.6925978745   -1.1941255356   -0.9061765434
C        7.0480732621   -1.4098269709   -0.7958028526
N        4.1804366244   -1.8520138075    0.0497062253
O        5.8295908523   -1.6080349736   -1.5350692230
F       -0.6445735859   -0.2945159941    2.3178042296
H        1.9201251581   -1.1669531010   -1.2973881458
H        3.6479018799   -1.6972193483    2.6021290419
H       -0.2358315295   -0.4603252037   -0.2452899387
H        1.4811368103   -0.9780818285    3.6531746525
H        4.2510215600   -0.2914409995   -1.3511146293
H        7.8462958454   -1.8317504877   -1.4075689409
H        7.0018325164   -1.9278973236    0.1671677604
H        7.2332081428   -0.3404279251   -0.6370166103
19   
Generated by ForceBalance from scan.xyz: Frame 8 of 24
C        1.8402653531   -1.1139217814   -0.2241310874
C        2.8352961282   -1.3211689421    1.9750280709
C        0.6126071781   -0.7836868901    0.3564815466
C        1.6182572762   -0.9793431642    2.5653782285
C        2.9669323625   -1.3711755019    0.5772096554
C        0.5268629460   -0.7129762591    1.7425454539
C        4.6927462134   -1.0692329636   -0.9349311061
C        7.0253699707   -1.4887093014   -0.7709318987
N        4.2180538329   -1.7386381962    0.0335878061
O        5.8352347790   -1.4259954820   -1.5808185326
F       -0.6651236720   -0.3923530531    2.3134760909
H        1.9149840342   -1.2048760415   -1.3041927852
H        3.7011193270   -1.5479776440    2.5900341883
H       -0.2681247571   -0.5931959497   -0.2492492251
H        1.5058018137   -0.9266975512    3.6439722909
H        4.1949079855   -0.2148607001   -1.4116687027
H        7.8220522944   -1.8288669176   -1.4332770581
H        6.8971030329   -2.1930721993    0.0554346563
H        7.2672830881   -0.4937335818   -0.3811799200
19   
Generated by ForceBalance from scan.xyz: Frame 9 of 24
C        1.8460861466   -1.1418734979   -0.2400486786
C        2.8571384381   -1.2253467140    1.9600264586
C        0.6042194740   -0.8602176691    0.3362634979
C        1.6248312474   -0.9330828072    2.5453939967
C        2.9873916842   -1.3125412191    0.5637736344
C        0.5182148709   -0.7519676080    1.7197764546
C        4.6919264071   -0.9568410553   -0.9608776439
C        6.9790357565   -1.5670956765   -0.7767637521
N        4.2537626810   -1.6297376548    0.0242122608
O        5.8426490779   -1.2556388957   -1.6087298095
F       -0.6880612459   -0.4787094848    2.2860135667
H        1.9225394012   -1.2614078087   -1.3172889476
H        3.7360977362   -1.3841852655    2.5777477885
H       -0.2871371924   -0.7357331085   -0.2710946518
H        1.5129493228   -0.8528709937    3.6223739052
H        4.1498016577   -0.1472728696   -1.4642248213
H        7.8224632109   -1.6782324829   -1.4586402313
H        6.8158222500   -2.4931047896   -0.2197727645
H        7.1647095034   -0.7457322519   -0.0779569957
19   
Generated by ForceBalance from scan.xyz: Frame 10 of 24
C        1.8646031559   -1.1609038141   -0.2458784259
C        2.8713810201   -1.1391000971    1.9561470091
C        0.6084524719   -0.9262330555    0.3207149706
C        1.6244060378   -0.8949130585    2.5324572753
C        3.0115390890   -1.2546947434    0.5627395326
C        0.5125805488   -0.7887301110    1.7008972713
C        4.6962295104   -0.8580207008   -0.9742904394
C        6.9269371802   -1.6339722032   -0.7919671502
N        4.2943501971   -1.5199912293    0.0349957768
O        5.8617609350   -1.1025545197   -1.6064632438
F       -0.7076031175   -0.5613217563    2.2580822817
H        1.9491470610   -1.3033867163   -1.3197711317
H        3.7553924556   -1.2377501096    2.5791595639
H       -0.2859141161   -0.8606129114   -0.2914441057
H        1.5057363069   -0.7939814889    3.6069859566
H        4.1221063486   -0.0884482842   -1.5020365395
H        7.8152363623   -1.6140230823   -1.4235616806
H        6.7040164423   -2.6561754500   -0.4760842853
H        7.0688060572   -1.0061243359    0.0919129013
19   
Generated by ForceBalance from scan.xyz: Frame 11 of 24
C        1.8948981793   -1.1774640114   -0.2458983917
C        2.8775362852   -1.0623124345    1.9641806092
C        0.6241520105   -0.9879048142    0.3050389910
C        1.6155760845   -0.8638141041    2.5250282970
C        3.0369715579   -1.2011424385    0.5747669797
C        0.5087417877   -0.8260238177    1.6810090217
C        4.7117350262   -0.7655464909   -0.9623083533
C        6.8815168334   -1.6928652218   -0.8173980633
N        4.3368686112   -1.4145003447    0.0667031842
O        5.8969911901   -0.9549655885   -1.5687935939
F       -0.7260958799   -0.6427343307    2.2222894109
H        1.9957315972   -1.3391444075   -1.3157236790
H        3.7592576279   -1.1060529988    2.5966288397
H       -0.2663255923   -0.9758966080   -0.3161474957
H        1.4821332876   -0.7456134516    3.5960844289
H        4.1187060689   -0.0212001906   -1.5036881220
H        7.7883226423   -1.6649775409   -1.4215295668
H        6.5536090192   -2.7233045582   -0.6590559962
H        7.0460675490   -1.2171166516    0.1529210615
19   
Generated by ForceBalance from scan.xyz: Frame 12 of 24
C        1.9306318722   -1.1932771537   -0.2363730840
C        2.8742995106   -0.9916282147    1.9838669673
C        0.6446287526   -1.0422685485    0.2908617518
C        1.5965880760   -0.8317024849    2.5207441118
C        3.0607547091   -1.1538376131    0.6001882141
C        0.5014872420   -0.8556551949    1.6609777195
C        4.7329766620   -0.6941377643   -0.9317582402
C        6.8473616226   -1.7441614599   -0.8562563241
N        4.3765065456   -1.3208575373    0.1178244817
O        5.9412757325   -0.8290768991   -1.5033524651
F       -0.7477493794   -0.7100253300    2.1805606241
H        2.0539639435   -1.3741653413   -1.3007700790
H        3.7470644797   -0.9858091886    2.6300527756
H       -0.2356963513   -1.0789386255   -0.3437073778
H        1.4422067348   -0.6958685117    3.5868665413
H        4.1264611790    0.0273895612   -1.4883209701
H        7.7561582641   -1.7255507652   -1.4576847757
H        6.4186909085   -2.7492304370   -0.8291550797
H        7.0509468256   -1.4162606943    0.1662870194
19   
Generated by ForceBalance from scan.xyz: Frame 13 of 24
C        1.9694260021   -1.2101747596   -0.2197452261
C        2.8617494907   -0.9228213243    2.0126540109
C        0.6688334568   -1.0920374072    0.2794926538
C        1.5689119178   -0.7951735659    2.5208449941
C        3.0808342457   -1.1107649019    0.6368365948
C        0.4921989526   -0.8779936188    1.6416189485
C        4.7605279344   -0.6388953209   -0.8829411856
C        6.8245805104   -1.7897158313   -0.9096963483
N        4.4116494124   -1.2363735085    0.1861074762
O        5.9927022752   -0.7254893689   -1.4132043479
F       -0.7712872940   -0.7646371849    2.1340914909
H        2.1196534362   -1.4125299753   -1.2768067589
H        3.7209744978   -0.8704459673    2.6746661380
H       -0.1970235087   -1.1750897054   -0.3704236619
H        1.3889681471   -0.6395873415    3.5802251106
H        4.1453125751    0.0612158145   -1.4574739781
H        7.7243637119   -1.7707154983   -1.5247107843
H        6.3079433013   -2.7483600573   -1.0045513256
H        7.0713660938   -1.6198089872    0.1413005938
19   
Generated by ForceBalance from scan.xyz: Frame 14 of 24
C        2.0145650754   -1.2240163577   -0.1885538562
C        2.8548107208   -0.8472003223    2.0515273004
C        0.7016568138   -1.1308828567    0.2829447929
C        1.5493129269   -0.7432877822    2.5314974964
C        3.1054474215   -1.0668666429    0.6856880088
C        0.4929728158   -0.8833070110    1.6348112928
C        4.7961441500   -0.5948258784   -0.8213600062
C        6.8111546125   -1.8254016126   -0.9955149456
N        4.4483339624   -1.1595184181    0.2653570396
O        6.0493050316   -0.6425833248   -1.3130681418
F       -0.7824206913   -0.7943051388    2.1004637002
H        2.1912346534   -1.4524039226   -1.2361550378
H        3.6993201304   -0.7504368418    2.7272899754
H       -0.1487763143   -1.2586958983   -0.3799527691
H        1.3442045990   -0.5630994630    3.5823632662
H        4.1711951038    0.0814039276   -1.4148801456
H        7.7127447048   -1.7649914753   -1.6054895476
H        6.2347558732   -2.7199635463   -1.2466345469
H        7.0678599046   -1.8490615237    0.0664649593
19   
Generated by ForceBalance from scan.xyz: Frame 15 of 24
C        2.0628433272   -1.2490204684   -0.1464823532
C        2.8499979830   -0.7638230196    2.0924101977
C        0.7392504422   -1.1721726224    0.2971448661
C        1.5333856094   -0.6742990667    2.5436391240
C        3.1321102587   -1.0294304870    0.7408938807
C        0.4983179639   -0.8768741713    1.6340188079
C        4.8389154949   -0.5775692841   -0.7541288938
C        6.8032477768   -1.8624219200   -1.1013435245
N        4.4851500551   -1.1000197142    0.3504852197
O        6.1126193768   -0.6006550753   -1.2083203805
F       -0.7873834719   -0.8033764021    2.0724956797
H        2.2653960370   -1.5141386799   -1.1805858012
H        3.6788230732   -0.6193713619    2.7789374918
H       -0.0948428644   -1.3486129556   -0.3752634830
H        1.3034730992   -0.4585511802    3.5825793132
H        4.2041883319    0.0601672026   -1.3808358873
H        7.7683277794   -1.7130479267   -1.5862416708
H        6.2369957048   -2.6418066540   -1.6203928176
H        6.9428868819   -2.1453742325   -0.0550940939
19   
Generated by ForceBalance from scan.xyz: Frame 16 of 24
C        2.1012567830   -1.2921464042   -0.0980537993
C        2.8151465974   -0.6781765688    2.1347380976
C        0.7648051509   -1.2323918485    0.3078463649
C        1.4850198635   -0.6034786473    2.5470761339
C        3.1392244508   -1.0001181929    0.8052195732
C        0.4807945004   -0.8793388397    1.6221201519
C        4.8749916924   -0.5678159170   -0.6616114396
C        6.7819939859   -1.8782998071   -1.1950932680
N        4.5041503352   -1.0522799318    0.4530957886
O        6.1710249598   -0.5794017288   -1.0685941465
F       -0.8173576924   -0.8213690604    2.0236259668
H        2.3390406476   -1.6003646429   -1.1124498914
H        3.6214186508   -0.4784984384    2.8341260703
H       -0.0461423452   -1.4648865096   -0.3757092140
H        1.2213760132   -0.3444239576    3.5679257989
H        4.2341723209    0.0176261556   -1.3334645073
H        7.8238636937   -1.6962437629   -1.4607782333
H        6.2909205768   -2.4472900578   -1.9922832417
H        6.7250419092   -2.4292065240   -0.2523918010
19   
Generated by ForceBalance from scan.xyz: Frame 17 of 24
C        2.1426235069   -1.3398497104   -0.0520304183
C        2.7764192338   -0.6141819242    2.1714518052
C        0.7938118242   -1.2909886390    0.3118724599
C        1.4332756452   -0.5479279954    2.5408958387
C        3.1462624361   -0.9873446433    0.8678813162
C        0.4632821337   -0.8855601567    1.6000384529
C        4.9217171272   -0.5763589664   -0.5565731336
C        6.7565036250   -1.8794774376   -1.2930169109
N        4.5231172613   -1.0314194252    0.5592113138
O        6.2379709146   -0.5930625230   -0.9099730867
F       -0.8470955188   -0.8367931094    1.9597536044
H        2.4169672738   -1.6866221238   -1.0444754653
H        3.5576091493   -0.3687378786    2.8845530717
H        0.0084701923   -1.5704717464   -0.3838315994
H        1.1338822796   -0.2495919995    3.5409245160
H        4.2833454639   -0.0487514683   -1.2787430440
H        7.8219747435   -1.7352798590   -1.4761898044
H        6.2712421511   -2.2316657024   -2.2115039528
H        6.6112787498   -2.6088616868   -0.4899724404
19   
Generated by ForceBalance from scan.xyz: Frame 18 of 24
C        1.8809590697   -0.8352550670   -0.0240766274
C        2.9005377997   -1.5944300287    2.0386414753
C        0.7324032940   -0.4587610624    0.6722584279
C        1.7490331692   -1.2357618910    2.7448602023
C        2.9844922017   -1.3834523448    0.6509930797
C        0.6894988611   -0.6640306728    2.0490940281
C        5.2708945177   -1.4581789159    0.3233012544
C        6.8804552144   -0.9544420473   -1.3185211574
N        4.1161369092   -1.7470993342   -0.1129323885
O        6.3981028223   -1.8736308573   -0.3243914966
F       -0.4329028865   -0.3126797142    2.7313030368
H        1.9405069500   -0.7031129819   -1.1002621408
H        3.7232657125   -2.0734430018    2.5619876221
H       -0.1228435033   -0.0235367293    0.1644355138
H        1.6646854776   -1.4033298310    3.8142798755
H        5.4646608097   -0.8786485283    1.2383473228
H        7.7849282576   -1.4004975169   -1.7338013279
H        7.1246328548    0.0181258310   -0.8712946296
H        6.1326183833   -0.8219046775   -2.1076914907
19   
Generated by ForceBalance from scan.xyz: Frame 19 of 24
C        1.8184438611   -0.8504226716   -0.0876951066
C        2.9064671644   -1.5308182119    1.9682539068
C        0.6905576278   -0.4553975551    0.6313982428
C        1.7754369425   -1.1522898815    2.6972089723
C        2.9459720161   -1.3686390189    0.5719746661
C        0.6912869184   -0.6109929925    2.0155289872
C        5.2208792900   -1.4485517469    0.1864873883
C        6.9733814209   -0.8602980617   -1.2547273936
N        4.0558795878   -1.7476881548   -0.2151452068
O        6.3268576537   -1.8823395337   -0.4802970898
F       -0.4117328219   -0.2409486658    2.7194705862
H        1.8437331664   -0.7563007633   -1.1692196401
H        3.7473166854   -1.9884035329    2.4819480292
H       -0.1828000459   -0.0428510760    0.1356408871
H        1.7254940904   -1.2822477092    3.7739937627
H        5.4351989278   -0.8170763448    1.0630868744
H        7.8816914683   -1.3083027283   -1.6591993620
H        7.2392871694    0.0039844858   -0.6308309227
H        6.3200878500   -0.5364667730   -2.0723444462
19   
Generated by ForceBalance from scan.xyz: Frame 20 of 24
C        1.7408690582   -0.8952963256   -0.1023003389
C        2.9219934557   -1.4924830213    1.9275961848
C        0.6373519868   -0.4929782504    0.6495493155
C        1.8162862636   -1.1051612508    2.6904218593
C        2.9027801554   -1.3761207033    0.5260801504
C        0.6970743262   -0.6022550102    2.0369231794
C        5.1603961740   -1.4410525521    0.0567984195
C        7.0541403135   -0.8503425225   -1.1895629556
N        3.9845670285   -1.7629865454   -0.2941098296
O        6.2421925087   -1.8925823102   -0.6294285084
F       -0.3822556997   -0.2245688808    2.7733318776
H        1.7207337569   -0.8362607097   -1.1863958577
H        3.7892527985   -1.9224891347    2.4209112247
H       -0.2618136016   -0.1094507373    0.1771276812
H        1.8125017167   -1.2000268751    3.7720420257
H        5.3991493215   -0.7688471689    0.8967299825
H        7.9500966022   -1.3328144769   -1.5812918497
H        7.3401514278   -0.1136684420   -0.4263878550
H        6.5161017948   -0.3478655607   -2.0007248584
19   
Generated by ForceBalance from scan.xyz: Frame 21 of 24
C        1.6691211821   -0.9326845433   -0.1089967193
C        2.9406089289   -1.4476414514    1.8881724137
C        0.5872240497   -0.5321118791    0.6744228042
C        1.8575144860   -1.0603198396    2.6830970124
C        2.8652126419   -1.3719640655    0.4854914384
C        0.7030328327   -0.5995817085    2.0609547580
C        5.1029527195   -1.4028817874   -0.0681397198
C        7.1267752649   -0.8562113123   -1.1232302165
N        3.9218237604   -1.7596598954   -0.3650330151
O        6.1634474204   -1.8604774856   -0.7758253096
F       -0.3548827706   -0.2225114459    2.8287147486
H        1.6058205636   -0.9046206677   -1.1926618849
H        3.8348183937   -1.8465783818    2.3591170674
H       -0.3376818881   -0.1808507430    0.2272385417
H        1.8980911592   -1.1239273066    3.7662703503
H        5.3596544819   -0.7028255224    0.7431639389
H        7.9953957991   -1.3841873134   -1.5173915679
H        7.4246686995   -0.2685693081   -0.2447207559
H        6.7187672829   -0.1886189397   -1.8897313162
19   
Generated by ForceBalance from scan.xyz: Frame 22 of 24
C        1.6036760421   -0.9737672579   -0.1055194337
C        2.9571522984   -1.3984242173    1.8577166898
C        0.5400829358   -0.5785944058    0.7052571965
C        1.8938460166   -1.0150824664    2.6809603650
C        2.8315991707   -1.3656935615    0.4567567621
C        0.7064672761   -0.6021676325    2.0880786670
C        5.0471867772   -1.3515274244   -0.1774320056
C        7.1794354462   -0.8821584006   -1.0525741013
N        3.8672279978   -1.7521790894   -0.4184890257
O        6.0886510984   -1.8021623971   -0.9122901411
F       -0.3331766074   -0.2290017225    2.8827278080
H        1.5015351284   -0.9779815071   -1.1865492344
H        3.8773019192   -1.7613586382    2.3074584594
H       -0.4089311472   -0.2638443766    0.2819920361
H        1.9747631967   -1.0460719976    3.7633262582
H        5.3151042080   -0.6295682376    0.6099880430
H        8.0058402132   -1.4485941552   -1.4821739284
H        7.4843693532   -0.4741757449   -0.0806026584
H        6.9046566112   -0.0626328605   -1.7253084180
19   
Generated by ForceBalance from scan.xyz: Frame 23 of 24
C        1.5677678742   -1.0252794321   -0.1018622703
C        2.9863057547   -1.3453186066    1.8350502820
C        0.5130178818   -0.6410184055    0.7257080037
C        1.9324632109   -0.9716707698    2.6748498100
C        2.8226484804   -1.3597891316    0.4376449103
C        0.7162086362   -0.6165813768    2.1035158396
C        5.0160578185   -1.2837120742   -0.2661864346
C        7.2299143070   -0.9036649582   -0.9743331334
N        3.8473367477   -1.7422901578   -0.4516706938
O        6.0447681167   -1.7090917148   -1.0317689466
F       -0.3140185584   -0.2535480315    2.9153276459
H        1.4375120405   -1.0650940587   -1.1791238227
H        3.9298507088   -1.6631461969    2.2704119047
H       -0.4567361719   -0.3704535974    0.3192089752
H        2.0432009966   -0.9666256915    3.7550011134
H        5.2816647460   -0.5340944619    0.4947574599
H        7.9996147315   -1.4571875875   -1.5121745336
H        7.5536968426   -0.7456508221    0.0612775483
H        7.0660541621    0.0635086485   -1.4619611080
19   
Generated by ForceBalance from scan.xyz: Frame 24 of 24
C        2.1296119759   -0.8793200592   -0.0316429325
C        2.4922776436   -1.7933297768    2.1814916475
C        0.9051996667   -0.3465886143    0.3834215455
C        1.2775976351   -1.2574811302    2.6091958674
C        2.9450120837   -1.5936152126    0.8653349588
C        0.5053146046   -0.5375058438    1.7008478039
C        4.9952391803   -1.4642024319   -0.1804421602
C        7.0048604567   -1.1149982914   -1.3556882109
N        4.1774421441   -2.1659700130    0.4894468036
O        6.1592714254   -2.0000495598   -0.6084418354
F       -0.6860902151   -0.0227260937    2.1106911040
H        2.4362377305   -0.7705209716   -1.0685013976
H        3.1116326487   -2.3688263435    2.8628214181
H        0.2624187579    0.1973694159   -0.3021203364
H        0.9235755021   -1.3967276441    3.6261327658
H        4.8412822073   -0.4082556369   -0.4488817088
H        7.8965992046   -1.6901168722   -1.6044570015
H        7.2908042014   -0.2420324944   -0.7580898895
H        6.5143533623   -0.7878852058   -2.2795458067
