32

C      0.66544    0.56476   -1.15077
C     -1.15737   -0.86814    0.37836
C     -0.59407    0.26895   -1.68996
C     -1.51578   -0.46347   -0.91802
C      1.03189    0.16321    0.13570
C      0.08935   -0.55169    0.89903
C      2.50384    0.22809    1.88791
C     -0.91788    0.70493   -3.10909
C     -2.90499   -0.79116   -1.43657
C     -2.41807    0.67528   -3.41996
C     -3.02852   -0.65158   -2.95771
C      1.37541   -0.14710    2.83660
C      0.69248    1.10121    3.40590
N      2.32811    0.40916    0.62537
N      3.72836    0.49152    2.47540
O      0.43567   -0.99641    2.16115
H      1.39945    1.11200   -1.73848
H     -1.85373   -1.43296    0.99434
H     -0.51199    1.70731   -3.28687
H     -0.39739    0.03793   -3.81093
H     -3.18497   -1.80325   -1.12210
H     -3.62778   -0.11462   -0.95852
H     -2.92090    1.50346   -2.90296
H     -2.57891    0.82450   -4.49369
H     -2.50371   -1.48102   -3.44998
H     -4.08173   -0.72001   -3.25279
H      1.76039   -0.76316    3.65549
H      0.28489    1.71632    2.59878
H      1.41092    1.70292    3.97053
H     -0.12529    0.80453    4.06904
H      4.48328    0.60855    1.80646
H      3.97540   -0.07174    3.28034
