30

C      0.40752    2.67385   -1.20882
C     -0.68065    2.80957   -0.33695
C      0.97498    1.41814   -1.43079
C     -1.20772    1.70015    0.33145
C      0.43883    0.31397   -0.76785
C     -0.63673    0.45045    0.11701
C      0.58578   -2.01932   -0.21749
C     -0.19846   -1.67855    1.03996
C      3.49058   -3.25222    4.58585
C      0.72801   -1.25135    2.19122
C      1.62564   -2.37671    2.71269
N      0.92082   -1.00920   -1.00099
N      0.92067   -3.27996   -0.47911
O     -1.16144   -0.67472    0.71974
S      2.58731   -1.73374    4.13128
H      0.81323    3.54328   -1.71548
H     -1.11869    3.78855   -0.16919
H      1.81666    1.30117   -2.10932
H     -2.04879    1.78948    1.01173
H     -0.78872   -2.55024    1.33262
H      4.11868   -2.99774    5.44213
H      4.13317   -3.59167    3.76909
H      2.80153   -4.04777    4.88102
H      0.06716   -0.90352    2.99134
H      1.33675   -0.39617    1.88146
H      1.01870   -3.22937    3.04255
H      2.32144   -2.72355    1.93948
H      1.46931   -1.16701   -1.84361
H      1.45305   -3.55440   -1.29954
H      0.64725   -4.01972    0.15751
