42

C      3.95513   -0.75079    2.69236
C      4.63979   -0.54634    3.89140
C      2.55569   -0.67733    5.07911
C      2.56916   -0.91796    2.64812
C      3.94848   -0.51110    5.11076
C      1.87106   -0.86809    3.87166
C     -0.21216   -2.35188    1.27409
C     -0.57191   -0.90220    0.96920
C      0.76398   -0.13789    0.93450
C      1.87241   -1.17069    1.32489
C     -1.67628   -1.52034    4.59303
C      5.45675    1.06095    6.36285
C      5.74462   -1.43431    6.60601
C      3.79156   -0.28155    7.65274
C     -0.23794   -1.24137    4.99457
C      4.71664   -0.29466    6.42304
N      1.15470   -2.44642    1.29107
O     -0.99396   -3.27891    1.46001
O      0.51130   -1.00389    3.79384
H      4.51443   -0.78894    1.75936
H      5.71825   -0.42312    3.86666
H      1.99291   -0.64949    6.00155
H     -1.11563   -0.86491    0.02100
H     -1.24599   -0.55002    1.75088
H      0.97165    0.25292   -0.06448
H      0.77218    0.70522    1.62610
H      2.65038   -1.17801    0.55409
H     -2.11968   -0.64543    4.10788
H     -1.73021   -2.36528    3.90187
H     -2.26835   -1.75148    5.48480
H      6.00856    1.23526    7.29356
H      6.17380    1.09566    5.53774
H      4.74881    1.88500    6.22514
H      6.30437   -1.29635    7.53813
H      5.24373   -2.40719    6.64854
H      6.46586   -1.46580    5.78442
H      4.38573   -0.12256    8.55851
H      3.05304    0.52540    7.59943
H      3.25853   -1.23072    7.77272
H      0.19607   -2.09818    5.52578
H     -0.17654   -0.36240    5.64970
H      1.57801   -3.29350    1.65229
