29   
Generated by ForceBalance from scan.xyz: Frame 1 of 24
C        1.4494799340   -0.5523740929    6.5373466586
C       -0.6810183975   -1.0949621368    6.9191446731
C        0.1529284276   -0.5213899170    5.9687949209
C        1.1842831662   -1.6248886154    1.2138731247
C       -0.6153663758    0.1326875185    1.3045048885
C        1.7839479396    0.7280158346    1.8543753763
C       -0.2689978515   -2.0486467201    9.2196470214
C        0.7002172354   -0.3568305864    1.9340941821
N        1.4206930015   -1.1104493537    7.7455098947
N        0.1154094608   -1.4328753387    7.9594901765
N        0.5450384138   -0.7794941784    3.3715901938
O       -1.8178262268   -0.1492930398    4.3346032997
O        0.0747702388    1.5425851398    4.2952394790
S       -0.3823132583    0.1583728440    4.4383584944
H        2.3791664726   -0.1998095357    6.1109491249
H       -1.7484802533   -1.2640676693    6.9039139695
H        2.0977318980   -2.0113319786    1.6766441158
H        0.4202764745   -2.4115338378    1.2347027856
H        1.3990427776   -1.3979817513    0.1657077717
H       -0.9635232749    1.0558431081    1.7736819799
H       -1.4056290786   -0.6175558456    1.4043602497
H       -0.4603305220    0.3328115970    0.2391000707
H        1.4756760423    1.6310946075    2.3823642522
H        2.7148947926    0.3660069178    2.3011890296
H        1.9754540108    0.9812137996    0.8063491809
H        0.2988780372   -2.9698878478    9.3669499165
H       -0.0653973764   -1.3629927956   10.0456701353
H       -1.3352657464   -2.2772318215    9.1898584892
H        0.1682616593   -1.7274033239    3.4244991359
29   
Generated by ForceBalance from scan.xyz: Frame 2 of 24
C        1.3639559083   -0.4694224337    6.4500339458
C       -0.7152515508   -1.1105781077    6.9426748988
C        0.0458583677   -0.5313941299    5.9369975587
C        1.1498358708   -1.6168276199    1.1832953779
C       -0.5242132351    0.2623328725    1.2170372222
C        1.8373603143    0.6283959783    2.0667423404
C       -0.1587878616   -1.9407068784    9.2612239239
C        0.6761395813   -0.3681886511    1.9445014850
N        1.4151086284   -0.9776351925    7.6793922184
N        0.1402963535   -1.3621916481    7.9611249789
N        0.3224275779   -0.8821531670    3.3130566664
O       -1.9990395567   -0.3412452443    4.3602508526
O       -0.1931578443    1.4482152115    4.2055618902
S       -0.5815879866    0.0492875511    4.4004225149
H        2.2554247072   -0.0857750778    5.9718523469
H       -1.7710299353   -1.3391610130    6.9791989018
H        1.9773255670   -2.1034728758    1.7087680648
H        0.3364638179   -2.3424870504    1.0621896760
H        1.4939314476   -1.3340609480    0.1843588108
H       -0.8564839443    1.1737727637    1.7184238411
H       -1.3671981599   -0.4351035219    1.1763037644
H       -0.2429915960    0.5207392727    0.1906490214
H        1.5359421534    1.5197262915    2.6176192434
H        2.6809276407    0.1630470433    2.5861661426
H        2.1692812640    0.9301321639    1.0678807735
H        0.4937571461   -2.7981169037    9.4388644199
H       -0.0004460433   -1.1975861362   10.0467919377
H       -1.2001079662   -2.2657692444    9.2716946486
H       -0.1388992574   -1.7905029927    3.2551007039
29   
Generated by ForceBalance from scan.xyz: Frame 3 of 24
C        1.2269010762   -0.2237513076    6.4485559016
C       -0.7290773636   -1.1703281601    6.9504206161
C       -0.0803572632   -0.4520513679    5.9565236397
C        0.9772945931   -1.6001509877    1.2327842226
C       -0.5103650434    0.4310671926    1.2087404253
C        1.7751230982    0.5197072612    2.3080935776
C       -0.0107889612   -1.9935763333    9.2270135833
C        0.5439131295   -0.3485789072    2.0137229378
N        1.3766123246   -0.7636300605    7.6567334413
N        0.1765806339   -1.3361394812    7.9437376621
N       -0.0025067750   -0.8924165708    3.3016865577
O       -2.2111860551   -0.3518539625    4.4923371096
O       -0.4333007006    1.4654994976    4.2020894095
S       -0.8036111821    0.0685161234    4.4396284557
H        2.0427649495    0.3067962978    5.9755719743
H       -1.7425649223   -1.5426667178    6.9985589058
H        1.7073661268   -2.1819922066    1.8033053718
H        0.1195426877   -2.2440818564    1.0038855838
H        1.4329286268   -1.3057078401    0.2829276317
H       -0.8174935162    1.3359682871    1.7362519624
H       -1.3981755359   -0.1859669057    1.0329218645
H       -0.0998080211    0.7215103759    0.2357340710
H        1.5030213008    1.4197461239    2.8604385287
H        2.5063700981   -0.0477687443    2.8925205458
H        2.2450265432    0.8201966264    1.3660805328
H        0.7466049600   -2.7699103831    9.3552187662
H        0.0783950537   -1.2650242361   10.0366668713
H       -1.0037263122   -2.4448790004    9.2506463953
H       -0.5941609305   -1.7073559666    3.1427656451
29   
Generated by ForceBalance from scan.xyz: Frame 4 of 24
C        1.0985271334    0.0063493990    6.4065189538
C       -0.6917862763   -1.2323843924    6.8893007096
C       -0.1732021404   -0.3827170468    5.9234120346
C        0.8992788693   -1.6250229629    1.2950206449
C       -0.3766226900    0.5439365403    1.1915435699
C        1.7524769526    0.3654189598    2.5594421855
C        0.1827110436   -2.0471763383    9.1135600771
C        0.4912203086   -0.3662365065    2.0781669172
N        1.3500275675   -0.5642311979    7.5840382484
N        0.2502355476   -1.3146838621    7.8592921468
N       -0.2586803870   -0.8969836858    3.2613792249
O       -2.3710805740   -0.3686678843    4.5514469901
O       -0.6434403957    1.4899163382    4.1690330612
S       -0.9796944954    0.0886408623    4.4320331835
H        1.8176333312    0.6742700572    5.9511466246
H       -1.6423733379   -1.7443597743    6.9374386395
H        1.5064193262   -2.2898717592    1.9162041047
H        0.0193970623   -2.1802413134    0.9484199125
H        1.4807484896   -1.3421819734    0.4125305933
H       -0.6695076653    1.4487463623    1.7263948237
H       -1.2845017598    0.0200456322    0.8720497440
H        0.1794837148    0.8340542798    0.2935305078
H        1.4998018250    1.2794076480    3.0993942770
H        2.3419065009   -0.2846772390    3.2136706587
H        2.3692452876    0.6379621278    1.6973777945
H        1.0461405102   -2.7106748865    9.1968969508
H        0.1811884268   -1.3492485925    9.9545120839
H       -0.7343036268   -2.6379502396    9.1284285009
H       -0.9677597496   -1.5767743450    2.9886491675
29   
Generated by ForceBalance from scan.xyz: Frame 5 of 24
C        0.8767227526    0.3295017800    6.4264678842
C       -0.6293294994   -1.2744802269    6.7861841364
C       -0.2934835539   -0.2630885160    5.8972107721
C        0.7652711442   -1.7324195568    1.4480918815
C       -0.2318295544    0.5711854939    1.2220498936
C        1.6680218592    0.1466188650    2.8436473404
C        0.3954062562   -2.0749554637    8.9497931309
C        0.4053074331   -0.4370778601    2.1942333036
N        1.2409064281   -0.2725980807    7.5586075628
N        0.3132432612   -1.2464300729    7.7574978863
N       -0.5486630434   -0.8742930470    3.2599779960
O       -2.5634214536   -0.2819606983    4.6180356075
O       -0.8461213357    1.5625726208    4.1362065661
S       -1.1766887460    0.1663024502    4.4370022666
H        1.4439399059    1.1627353380    6.0340890973
H       -1.4595944379   -1.9664312307    6.7861946246
H        1.2189057038   -2.4586769203    2.1285043555
H       -0.1231515108   -2.1893658383    0.9962147558
H        1.4726158487   -1.5157033292    0.6418101919
H       -0.4990251878    1.4954133707    1.7368849481
H       -1.1379159789    0.1516580906    0.7699109893
H        0.4680293223    0.8090074169    0.4136094317
H        1.4580646190    1.0970386961    3.3381958283
H        2.0826165602   -0.5525002276    3.5761071187
H        2.4231405945    0.3284076907    2.0728996111
H        1.3747259885   -2.5561888476    8.9934482596
H        0.2552029797   -1.4599127008    9.8421190590
H       -0.3842265930   -2.8367277267    8.9052811694
H       -1.3488504715   -1.3791754145    2.8793497642
29   
Generated by ForceBalance from scan.xyz: Frame 6 of 24
C        0.5576390337    0.6909714019    6.5085368021
C       -0.4143884120   -1.3159080020    6.5192146944
C       -0.3659308751   -0.1222738231    5.8120807928
C        0.6530905627   -1.8943242656    1.6227178944
C        0.0720140151    0.5353830079    1.2768699162
C        1.6326985536   -0.1546967307    3.1422431674
C        0.7483244042   -2.1270746092    8.6072930757
C        0.3981317771   -0.5481738775    2.3199214297
N        1.0524042989    0.0459306480    7.5649110557
N        0.4491649772   -1.1731076200    7.5510391464
N       -0.7606872067   -0.8068974559    3.2292376331
O       -2.7047803416   -0.0678157683    4.5898585674
O       -0.9261370204    1.6849714144    4.0558847631
S       -1.3003081074    0.3038304936    4.3839256759
H        0.8667698699    1.7006366940    6.2736017461
H       -0.9891573179   -2.2158627044    6.3519764582
H        0.9025212003   -2.6681807722    2.3543799225
H       -0.2295555379   -2.2226421497    1.0614594223
H        1.4811616922   -1.7996881666    0.9134342218
H       -0.1433876944    1.4894959494    1.7610625954
H       -0.7999780168    0.2460022639    0.6788786227
H        0.9176069359    0.6697896002    0.5936603872
H        1.5140143180    0.8292135326    3.6009836183
H        1.8302094079   -0.8881649458    3.9289339572
H        2.5042379011   -0.1119839869    2.4821887624
H        1.8259418017   -2.2984591324    8.6501741507
H        0.4062967083   -1.7372264948    9.5691159303
H        0.2367770736   -3.0661077366    8.3912456750
H       -1.5925442747   -1.1157979837    2.7255282923
29   
Generated by ForceBalance from scan.xyz: Frame 7 of 24
C        0.1631011781    0.7786625238    6.4358554101
C       -0.5027148056   -1.3489843956    6.3762986555
C       -0.6261317516   -0.1396965895    5.7057581478
C        0.4832425949   -1.9967635823    1.6520110269
C        0.1578737560    0.4901820633    1.3667331774
C        1.4304825485   -0.4104010104    3.3452390260
C        0.7655994932   -2.0476185027    8.4442806141
C        0.2637227135   -0.6624185297    2.3831271561
N        0.7465356802    0.1791033794    7.4731366242
N        0.3300050379   -1.1150100286    7.4167166033
N       -1.0214890219   -0.8423150079    3.1223902350
O       -2.9936036718   -0.2732238907    4.5099971113
O       -1.3634218311    1.6123882641    3.9806987869
S       -1.6222390474    0.2007562333    4.2980625166
H        0.3207656075    1.8294434771    6.2328895559
H       -0.9382943699   -2.3177303141    6.1758630399
H        0.5703914691   -2.8203107828    2.3667531391
H       -0.3484265783   -2.2170074995    0.9727260228
H        1.3978403340   -1.9515382426    1.0527977844
H       -0.0457532202    1.4350632210    1.8748267973
H       -0.6540760438    0.3033001947    0.6548374236
H        1.0893338790    0.5867616760    0.7984104040
H        1.3514246900    0.5611417462    3.8370191297
H        1.4927003014   -1.1865077363    4.1120847575
H        2.3621654920   -0.4155428857    2.7716378232
H        1.8565229512   -2.0551337210    8.4916438025
H        0.3642642056   -1.7464310789    9.4149928221
H        0.4031757070   -3.0455084106    8.1931784175
H       -1.8049157157   -1.1169975909    2.5314682541
29   
Generated by ForceBalance from scan.xyz: Frame 8 of 24
C       -0.0280395440    0.6879144046    5.9418789202
C       -0.7804202487   -1.3682577045    6.3587940677
C       -0.8773688460   -0.3284665299    5.4438913057
C        0.4194664633   -1.5154817152    0.8683961367
C        0.4966054201    0.7294821629    1.9814079082
C        1.4859353291   -1.2872243913    3.1382861141
C        0.4937278508   -1.6480213816    8.5211177337
C        0.3593834368   -0.7797820613    2.2178524046
N        0.5587516124    0.3023933071    7.0755038187
N        0.0901448786   -0.9517142457    7.3094968762
N       -0.9832654771   -1.1163208529    2.7712213927
O       -2.9953705832   -1.1880019046    4.1961689773
O       -1.9761125610    1.0848673446    3.5737346806
S       -1.8402030901   -0.3162171354    3.9633169629
H        0.1591835114    1.6683349256    5.5244350455
H       -1.2776946226   -2.3274614452    6.3948627720
H        0.2987263115   -2.5972676992    1.0007550150
H       -0.3726051835   -1.1600890667    0.2040880799
H        1.3882054919   -1.3451382419    0.3884985596
H        0.5300690548    1.2925108008    2.9159274575
H       -0.3393333860    1.1114890330    1.3921680222
H        1.4297224757    0.9146253622    1.4405145696
H        1.4799409867   -0.7730676677    4.1018723082
H        1.3824519303   -2.3626211187    3.3242157551
H        2.4620199431   -1.1197099512    2.6711339609
H        1.5836656636   -1.6716377468    8.5805106763
H        0.0952759852   -1.1335936400    9.3991905809
H        0.1071324446   -2.6676736248    8.4887290056
H       -1.1643039721   -2.1144991993    2.8480498549
29   
Generated by ForceBalance from scan.xyz: Frame 9 of 24
C       -0.1283439966    0.7602398193    5.8713431504
C       -0.6905658671   -1.3593984931    6.2730532329
C       -0.8907663535   -0.3219769519    5.3713907334
C        0.4734936940   -1.4361831924    0.8599703847
C        0.6022633183    0.6890636924    2.1837607797
C        1.3717087324   -1.4937929619    3.2080251973
C        0.6419435974   -1.5534437619    8.4091418590
C        0.3545545909   -0.8228120467    2.2662702374
N        0.5095016541    0.4131298121    6.9892215724
N        0.1571403802   -0.8810633428    7.2136987098
N       -1.0563240823   -1.0926348640    2.6693628848
O       -2.9982861580   -1.3238571507    4.1860228391
O       -2.1521242926    1.0212748481    3.5737146407
S       -1.9090364711   -0.3748851849    3.9310936503
H       -0.0384043858    1.7594642957    5.4669923477
H       -1.0999784543   -2.3594665200    6.3022407365
H        0.2683043068   -2.5130990281    0.8792257969
H       -0.2368557305   -0.9637980130    0.1766532158
H        1.4870300428   -1.2969460078    0.4710560243
H        0.5977998478    1.1604493516    3.1683421453
H       -0.1634447198    1.1748068338    1.5752840133
H        1.5836451157    0.8661027947    1.7333948564
H        1.3512745890   -1.0565993020    4.2076561558
H        1.1715130509   -2.5680675166    3.2967301536
H        2.3845514148   -1.3745520110    2.8094535472
H        1.7308671843   -1.4849719676    8.4482218980
H        0.2181425553   -1.0836691980    9.3001950952
H        0.3423675705   -2.6017502518    8.3713160489
H       -1.2763122642   -2.0871841568    2.6852723850
29   
Generated by ForceBalance from scan.xyz: Frame 10 of 24
C       -0.2174059304    0.7756750127    5.8551671515
C       -0.6256704098   -1.3843373086    6.2282518222
C       -0.8992904636   -0.3522646303    5.3394853503
C        0.5182300636   -1.3496919846    0.8456793618
C        0.7043222731    0.6663750539    2.3232352631
C        1.2851910816   -1.6324003729    3.2203763843
C        0.7207057464   -1.5115332663    8.3604370906
C        0.3626366265   -0.8289059485    2.2859165792
N        0.4455438031    0.4597600850    6.9669908783
N        0.1869132011   -0.8599541125    7.1743179236
N       -1.0892822207   -1.0165934255    2.5817393282
O       -2.9436259575   -1.5084749461    4.1642888571
O       -2.3384964102    0.9314761041    3.6536717825
S       -1.9514905373   -0.4522393421    3.9278222834
H       -0.2052665994    1.7854605338    5.4676993017
H       -0.9631522795   -2.4112022926    6.2426805899
H        0.2591964033   -2.4131025989    0.7790372182
H       -0.1332416038   -0.7942308371    0.1662670324
H        1.5551137916   -1.2380286525    0.5139948272
H        0.6628132270    1.0694023320    3.3366089905
H        0.0067585640    1.2337043556    1.7025691161
H        1.7209834703    0.8185358944    1.9482374957
H        1.2823818608   -1.2390148267    4.2374879588
H        0.9843205713   -2.6859795771    3.2550959413
H        2.3142205212   -1.5910087036    2.8485149432
H        1.8026667346   -1.3700609334    8.3970588431
H        0.2694352745   -1.0812565371    9.2578833670
H        0.4923645586   -2.5771446802    8.3114288815
H       -1.3577135565   -1.9955567836    2.4830665030
29   
Generated by ForceBalance from scan.xyz: Frame 11 of 24
C       -0.3324841211    0.8115006925    5.8514807140
C       -0.5500848203   -1.3787325093    6.2100567802
C       -0.8996815625   -0.3714773274    5.3192838226
C        0.5356044950   -1.2513606214    0.8109327851
C        0.8337551678    0.6028332419    2.4677772301
C        1.2039269784   -1.8078751910    3.1657136173
C        0.7716975861   -1.3959912943    8.3606697327
C        0.3766585946   -0.8508805896    2.2891284243
N        0.3406340977    0.5505285035    6.9706685050
N        0.1978708111   -0.7886132740    7.1697545869
N       -1.0961544308   -0.9456335892    2.5246083739
O       -2.8355232193   -1.7158241004    4.1536596438
O       -2.5342744691    0.7901266514    3.7302079062
S       -1.9733739589   -0.5458765085    3.9326987817
H       -0.4072618583    1.8201020372    5.4676517022
H       -0.7978634202   -2.4309397797    6.2159818692
H        0.1984829789   -2.2807744498    0.6408547205
H       -0.0499076354   -0.5875337135    0.1697412540
H        1.5878159989   -1.1924042233    0.5161948488
H        0.8059035821    0.9132271548    3.5135112265
H        0.1948489723    1.2755466879    1.8898467932
H        1.8660646739    0.7101543116    2.1208734908
H        1.1937202177   -1.5115242597    4.2151559433
H        0.8234863082   -2.8330766012    3.0906054725
H        2.2460331966   -1.8114451142    2.8296832219
H        1.8363568571   -1.1597317452    8.4123687274
H        0.2723331589   -1.0112358947    9.2532888830
H        0.6389542606   -2.4773467875    8.3049303762
H       -1.4196530946   -1.8872741569    2.3004025508
29   
Generated by ForceBalance from scan.xyz: Frame 12 of 24
C       -3.1369437297   -1.1409165078    2.9485028527
C       -2.6033178381    1.0112561569    3.1869606718
C       -2.1716536544   -0.2694267389    3.5089899805
C        2.2455387865   -1.3924288536    1.9923668041
C       -0.1087334537   -2.0908898405    1.4700657342
C        0.5154487728    0.3660225021    1.5817452009
C       -4.5878787469    1.8888783252    1.8987167470
C        0.7589757107   -1.0305107542    2.1693028227
N       -4.0774627226   -0.4530804266    2.3040979314
N       -3.7303537474    0.8549633489    2.4576782786
N        0.5823690677   -1.0037452408    3.6549468345
O       -0.5518658608    0.6032054226    5.2938752407
O       -1.1203795611   -1.8821614075    5.3049047764
S       -0.8196527436   -0.6434057134    4.5728297521
H       -3.1823109841   -2.2204310365    3.0072260636
H       -2.1870385391    1.9749057199    3.4441898703
H        2.8816888695   -0.6533246600    2.4861625271
H        2.4666558511   -2.3778420220    2.4188703742
H        2.4997980849   -1.4257979879    0.9285263075
H       -1.1692848453   -1.8402719361    1.5109003971
H        0.0323606976   -3.0749039389    1.9304716057
H        0.1727961241   -2.1690144159    0.4146589961
H       -0.5417844039    0.6349458719    1.5935461761
H        1.0745376667    1.1175824056    2.1462077815
H        0.8505366405    0.3890839140    0.5401509932
H       -4.7097458605    1.7225045419    0.8263900717
H       -5.5670841505    1.8606271421    2.3825302391
H       -4.1241317207    2.8615844880    2.0679537323
H        0.8743597286   -1.9036877775    4.0393536599
29   
Generated by ForceBalance from scan.xyz: Frame 13 of 24
C       -3.1699806678   -1.1484173906    3.0646246175
C       -2.6358401199    1.0156642225    3.1203481621
C       -2.1939872205   -0.2349389879    3.5324859949
C        2.1926723320   -1.4925590270    1.9922908248
C       -0.2076932199   -1.9111798707    1.3876904069
C        0.6460557419    0.4563241546    1.7074189916
C       -4.6589634373    1.7894169945    1.8245293278
C        0.7457070578   -1.0003188727    2.1797182537
N       -4.1282995716   -0.5138471657    2.3922448864
N       -3.7818059287    0.8024157130    2.4350921099
N        0.5399160334   -1.0637315655    3.6593759931
O       -0.4614092334    0.7899874937    5.1059283505
O       -1.0975376994   -1.6617847303    5.4584168227
S       -0.8002286774   -0.5310944147    4.5705400932
H       -3.2077386639   -2.2213109732    3.2009369561
H       -2.2172859524    1.9968744554    3.2935952985
H        2.8873288009   -0.8614213298    2.5523607071
H        2.3072677228   -2.5253531905    2.3417991468
H        2.4647740447   -1.4676463105    0.9325510743
H       -1.2381482359   -1.5565503220    1.4228120485
H       -0.1810291286   -2.9356836457    1.7758496212
H        0.0977051616   -1.9441371148    0.3365774269
H       -0.3790107282    0.8287264093    1.7545284448
H        1.2776687247    1.1004301968    2.3248756800
H        0.9768295470    0.5291324909    0.6668517471
H       -4.8159677766    1.5384657932    0.7734474686
H       -5.6217988562    1.8013693355    2.3409564271
H       -4.1912667344    2.7719786503    1.9002894240
H        0.6857709203   -2.0205128661    3.9838064794
29   
Generated by ForceBalance from scan.xyz: Frame 14 of 24
C       -3.2449563226   -1.2172276095    3.1473641561
C       -2.6992945065    0.9416733608    3.0372937579
C       -2.2614360256   -0.2765291250    3.5393437743
C        2.1102893158   -1.6224404998    2.0164920258
C       -0.2919047173   -1.7733018350    1.2987162742
C        0.7434391692    0.4720510199    1.8575207461
C       -4.7320646519    1.6288207710    1.7075433005
C        0.7041707644   -1.0234020391    2.2003405830
N       -4.2054824078   -0.6295350847    2.4363027981
N       -3.8523403650    0.6839207428    2.3779413802
N        0.4248698473   -1.1964445744    3.6570384225
O       -0.4307551422    0.8340384097    4.9401483197
O       -1.1449243144   -1.5496165898    5.5534405916
S       -0.8405890760   -0.5186608295    4.5560002725
H       -3.2847398336   -2.2778564514    3.3586195257
H       -2.2751250461    1.9311556886    3.1319159872
H        2.8343104091   -1.0981081840    2.6453670045
H        2.1254805852   -2.6848036770    2.2869384729
H        2.4221071806   -1.5405076438    0.9706136805
H       -1.2926019409   -1.3424802017    1.3440509525
H       -0.3591422591   -2.8292815289    1.5846055296
H        0.0452980698   -1.7307471405    0.2577632756
H       -0.2494478993    0.9245815311    1.8995499308
H        1.3930875625    1.0082789912    2.5533725729
H        1.1249363837    0.6027742439    0.8403153697
H       -4.9234194737    1.2881162980    0.6880090744
H       -5.6794054878    1.7045682780    2.2470213077
H       -4.2471148103    2.6056454496    1.6818474444
H        0.4446982312   -2.1817825203    3.9194181483
29   
Generated by ForceBalance from scan.xyz: Frame 15 of 24
C       -3.2713570584   -1.2284319164    3.2744229088
C       -2.7348489249    0.9189738848    3.0085637702
C       -2.2896839490   -0.2588185974    3.5926817520
C        2.0560523352   -1.7146106023    2.0365037854
C       -0.3236596130   -1.5955796234    1.2320156883
C        0.8840008467    0.5006528939    1.9716962297
C       -4.7867320439    1.5064772182    1.6591745965
C        0.7030404688   -1.0035749887    2.2146840897
N       -4.2417953749   -0.6942948240    2.5344595700
N       -3.8951664902    0.6124547063    2.3814780077
N        0.3365899578   -1.2550001420    3.6390103199
O       -0.3391456181    0.9173338329    4.7856790240
O       -1.1028604475   -1.3737144931    5.6487750085
S       -0.8204795191   -0.4448086016    4.5515056282
H       -3.3048975032   -2.2725681528    3.5570338439
H       -2.3109596743    1.9129918204    3.0234848047
H        2.7985061081   -1.2995823623    2.7229731664
H        1.9668655951   -2.7891548837    2.2348567138
H        2.4146358575   -1.5941326736    1.0094427044
H       -1.2875776170   -1.0880354638    1.2942457816
H       -0.4858303921   -2.6612451668    1.4302352693
H        0.0437962655   -1.4991939911    0.2049781979
H       -0.0648677285    1.0392723378    2.0186328008
H        1.5551538662    0.9367665459    2.7145595643
H        1.3064399618    0.6524424426    0.9737329884
H       -4.9883030828    1.0973073328    0.6671288559
H       -5.7282443020    1.6153796593    2.2032181893
H       -4.3064237725    2.4811340968    1.5620267747
H        0.2538934465   -2.2469061270    3.8559684924
29   
Generated by ForceBalance from scan.xyz: Frame 16 of 24
C       -3.2995874342   -1.2413242874    3.4002561458
C       -2.8122354201    0.8920617788    2.9768522934
C       -2.3276034075   -0.2364292455    3.6226725304
C        2.0025842647   -1.8495590559    2.0403828222
C       -0.2902237813   -1.3456110774    1.1308499525
C        1.1542854397    0.5098331464    2.0532457021
C       -4.9215531088    1.3573055293    1.6675939667
C        0.7546091961   -0.9642323668    2.1967297596
N       -4.3061772237   -0.7713343855    2.6642952901
N       -3.9896977699    0.5271192794    2.4144378765
N        0.2607861622   -1.2518896767    3.5736001480
O       -0.2860009753    1.0170194924    4.5953816671
O       -1.0278624191   -1.1872687669    5.6768522246
S       -0.7993221125   -0.3488040932    4.4985011167
H       -3.3052150252   -2.2649658108    3.7516429932
H       -2.4021307224    1.8893977706    2.9036875088
H        2.7541231599   -1.5869220284    2.7896497806
H        1.7532993095   -2.9106873563    2.1591404493
H        2.4352716385   -1.7192264915    1.0436807843
H       -1.1839813977   -0.7221091873    1.2037058618
H       -0.5976956476   -2.3916413441    1.2402182228
H        0.1303675748   -1.2213278263    0.1274191434
H        0.2893985191    1.1752442832    2.0869945209
H        1.8361011905    0.8101813643    2.8514171616
H        1.6513645896    0.6455932835    1.0877099829
H       -5.1450208569    0.8842367803    0.7091419272
H       -5.8480363961    1.4819712271    2.2336172913
H       -4.4650435887    2.3331481876    1.4958884023
H        0.1138533682   -2.2401033609    3.7661137827
29   
Generated by ForceBalance from scan.xyz: Frame 17 of 24
C       -2.9552817900   -1.4969258432    3.0654884778
C       -3.0459607035    0.7172033408    2.8161634322
C       -2.2467992385   -0.2986051723    3.3192913398
C        1.5258965642   -2.1273454314    1.5329528643
C       -0.1564053745   -0.3539944729    0.9792147224
C        2.0177112602    0.2911488091    2.0732559165
C       -5.3003280304    0.7319683846    1.6808267731
C        0.9213671354   -0.7870719772    1.9802991660
N       -4.1008256808   -1.2430019796    2.4351595694
N       -4.1363826815    0.1103081945    2.2920495289
N        0.3395654142   -1.0592202839    3.3275674458
O       -0.4045283998    1.3644039783    3.9818023115
O       -0.7711086915   -0.6457383362    5.5014015900
S       -0.7208147728   -0.0619190854    4.1581209446
H       -2.6673263524   -2.5123631070    3.3035994955
H       -2.8920889068    1.7867994945    2.8001419635
H        2.2853605358   -2.4749888066    2.2428003273
H        0.7504772709   -2.8948800138    1.4558464572
H        2.0097571002   -2.0153307733    0.5577466630
H       -0.5729901356    0.6238128503    1.2302269113
H       -0.9705440673   -1.0805563248    0.9244045796
H        0.3029073761   -0.2748864749   -0.0107093201
H        1.5993017433    1.2332613392    2.4345510317
H        2.8069618432   -0.0202001360    2.7668475913
H        2.4766882215    0.4593425062    1.0929650228
H       -5.5091110374    0.2476189366    0.7250520359
H       -6.1695131435    0.6288778363    2.3356869884
H       -5.0908771861    1.7899917812    1.5165650252
H        0.9937932789   -1.4506832719    4.0027476028
29   
Generated by ForceBalance from scan.xyz: Frame 18 of 24
C       -2.9661393696   -1.4863747312    3.1492282033
C       -3.0703306220    0.7117499020    2.7857375010
C       -2.2450498005   -0.2781340712    3.2988411623
C        1.5770059764   -2.1638234912    1.4569269043
C        0.0319180992   -0.2712657242    0.8850240210
C        2.1710621563    0.1867536225    2.1532747075
C       -5.3847370695    0.6723647660    1.7795769005
C        1.0207149894   -0.8104617540    1.9278477821
N       -4.1483724723   -1.2620005558    2.5783557811
N       -4.1922990265    0.0813231964    2.3653225673
N        0.3008642660   -1.1193598688    3.2011481612
O       -0.3158543581    1.3907198182    3.7043338761
O       -0.6552433288   -0.4775066549    5.4042059200
S       -0.6640690222   -0.0028123376    4.0169174653
H       -2.6636761477   -2.4888217156    3.4213008218
H       -2.9169064190    1.7780767419    2.6988739113
H        2.2578363361   -2.5923788393    2.2016592339
H        0.7659019602   -2.8763928237    1.2821478641
H        2.1401709779   -2.0355472821    0.5274007486
H       -0.3441024191    0.7164412466    1.1613121906
H       -0.8168396916   -0.9498177388    0.7623414351
H        0.5432627816   -0.1775224367   -0.0777416153
H        1.7912475553    1.1440163420    2.5147818957
H        2.8814605613   -0.2037576406    2.8911175494
H        2.7163696725    0.3535769522    1.2180527922
H       -5.6182359286    0.1672978639    0.8400806744
H       -6.2296834048    0.5689289138    2.4650817083
H       -5.1974205244    1.7301162398    1.5890396254
H        0.9055350274   -1.5440523677    3.9044883611
29   
Generated by ForceBalance from scan.xyz: Frame 19 of 24
C       -3.1298451324   -1.4330506709    3.4811087715
C       -3.1024431620    0.6544634913    2.6969991113
C       -2.3187662522   -0.2796442154    3.3579526886
C        1.6176531519   -2.1272873701    1.3650210093
C        0.2418360533   -0.1053682055    0.8036958715
C        2.2701657104    0.1170974984    2.3085954279
C       -5.4733834670    0.6078843792    1.8290739316
C        1.0933218468   -0.7803075605    1.8887665366
N       -4.3258479128   -1.2281723974    2.9325706615
N       -4.2892961863    0.0467366745    2.4592715406
N        0.2192597274   -1.1452100012    3.0472453812
O       -0.3297730785    1.3685163927    3.5528702581
O       -0.5813080413   -0.4692450324    5.3148833718
S       -0.6757655908   -0.0090982619    3.9251590255
H       -2.8870672604   -2.3830397942    3.9384539361
H       -2.8839043113    1.6709040111    2.4018035799
H        2.2011845304   -2.6505382492    2.1317321923
H        0.7897027012   -2.7739039073    1.0608957059
H        2.2726936948   -1.9648054455    0.5036278529
H       -0.1084926358    0.8772514957    1.1257677313
H       -0.6240092173   -0.7266520237    0.5551884414
H        0.8430829813    0.0287264052   -0.1006898892
H        1.9150294535    1.0753285535    2.6911870069
H        2.8669011769   -0.3686586872    3.0891249623
H        2.9261086219    0.3029514830    1.4511886677
H       -5.8050053947   -0.0516296726    1.0244690874
H       -6.2759658126    0.7131399282    2.5635924519
H       -5.2243371442    1.5876049419    1.4186860395
H        0.7223953398   -1.6943083562    3.7445507037
29   
Generated by ForceBalance from scan.xyz: Frame 20 of 24
C       -3.2767239186   -1.2654621036    3.8945804955
C       -3.1259376736    0.5407831904    2.5952204880
C       -2.3845068211   -0.2613103384    3.4502733843
C        1.6124277565   -2.0929169641    1.2541908240
C        0.4653309165    0.0794498833    0.7487780254
C        2.3270255145   -0.0064635954    2.4703118926
C       -5.5396802380    0.4964650189    1.8552490951
C        1.1365982858   -0.7567186120    1.8479349800
N       -4.4822988494   -1.0973856510    3.3527234091
N       -4.3691526522    0.0039408711    2.5634988828
N        0.1110657590   -1.1514509560    2.8660029096
O       -0.3313277000    1.3314212014    3.4719884483
O       -0.5091750831   -0.5286679053    5.2319332155
S       -0.6889169040   -0.0369747718    3.8611550779
H       -3.0870403489   -2.0775073140    4.5839683617
H       -2.8490194394    1.4298890712    2.0466201680
H        2.0855983245   -2.7211051081    2.0183274868
H        0.7742775568   -2.6464725823    0.8212266694
H        2.3539197184   -1.9094481178    0.4708913391
H        0.1369501609    1.0469534425    1.1322004704
H       -0.3989051163   -0.4543800589    0.3411357205
H        1.1771784411    0.2579221239   -0.0632112669
H        2.0129170595    0.9513737361    2.8881185341
H        2.7831913764   -0.6009292419    3.2698576142
H        3.0927005160    0.1790657444    1.7092694971
H       -5.9666773768   -0.3086551537    1.2537687260
H       -6.2885166369    0.8505931777    2.5683128854
H       -5.2387967682    1.3184699013    1.2040584154
H        0.4690181795   -1.8709141102    3.4941319392
29   
Generated by ForceBalance from scan.xyz: Frame 21 of 24
C       -3.3091737772   -1.2319695970    4.1563337339
C       -3.2105921821    0.3722176460    2.6102360653
C       -2.4334192280   -0.3119391521    3.5339997481
C        1.6689921211   -2.0394095122    1.2702099167
C        0.7330185469    0.2404852285    0.8091045314
C        2.3448419886   -0.1083240559    2.7374028125
C       -5.6567059535    0.2550102005    1.9976046350
C        1.2017680103   -0.7215598910    1.9098948755
N       -4.5388772425   -1.1266632787    3.6526769245
N       -4.4563351239   -0.1482138786    2.7126925855
N        0.0264586119   -1.1221112982    2.7541074487
O       -0.3952711414    1.3159210462    3.4475359041
O       -0.4617724605   -0.5553726427    5.1997812041
S       -0.7207788840   -0.0579217829    3.8432044627
H       -3.0894146549   -1.9392627702    4.9450829746
H       -2.9577581532    1.1736426973    1.9304657530
H        2.0129400099   -2.7511639333    2.0302730385
H        0.8593001502   -2.5040061163    0.6997061668
H        2.5066347713   -1.8473378566    0.5933596295
H        0.4007026089    1.1904806861    1.2293505889
H       -0.0914815003   -0.2058532821    0.2441074980
H        1.5588579835    0.4381811042    0.1181356749
H        2.0428850092    0.8410185878    3.1835080195
H        2.6496170949   -0.7871429610    3.5412008099
H        3.2149611415    0.0727082848    2.0972163314
H       -6.1133203035   -0.6200080148    1.5305679218
H       -6.3704694904    0.7086203280    2.6898843160
H       -5.3837068889    0.9789561400    1.2284719222
H        0.2314244747   -1.9677599360    3.2863258194
29   
Generated by ForceBalance from scan.xyz: Frame 22 of 24
C       -3.3375901588   -0.9940862894    4.2701614529
C       -3.2979732962    0.3123894818    2.4619122926
C       -2.4831794452   -0.2165446472    3.4538465197
C        1.6130551541   -1.9806150952    1.1373964382
C        0.9616894279    0.4077863045    0.7320676529
C        2.2971464824   -0.2155380679    2.7958479885
C       -5.7720926385    0.1386180051    1.9950681256
C        1.2037116245   -0.6596299733    1.8084776801
N       -4.5896980045   -0.9529273099    3.8141393049
N       -4.5423034413   -0.1545893396    2.7142301834
N       -0.1011395098   -0.9796287187    2.4860143893
O       -0.4453642957    1.4306899065    3.2523636893
O       -0.4177741500   -0.4322420661    5.0008616807
S       -0.7586090968    0.0574454072    3.6588524889
H       -3.0831071561   -1.5578446307    5.1578705286
H       -3.0712440185    0.9731571751    1.6370826633
H        1.8148969781   -2.7600063752    1.8820001249
H        0.8268945732   -2.3358002587    0.4640808152
H        2.5270196324   -1.8335554046    0.5547447106
H        0.6446042253    1.3512572690    1.1773381202
H        0.1897810177    0.0704179750    0.0331251678
H        1.8858755632    0.5802916405    0.1706980643
H        2.0473854479    0.7410046586    3.2597239011
H        2.4323857929   -0.9574352946    3.5894368809
H        3.2498573165   -0.0999929843    2.2682046916
H       -6.2641671605   -0.7966808419    1.7209478038
H       -6.4425271362    0.7282888793    2.6253163557
H       -5.5290008640    0.7020151672    1.0930516967
H       -0.0653694941   -1.9049072183    2.9155293206
29   
Generated by ForceBalance from scan.xyz: Frame 23 of 24
C       -3.2726652950   -0.9534047333    4.3033730671
C       -3.3782633115    0.2686829647    2.4400175307
C       -2.4924066940   -0.1821549738    3.4100493176
C        1.5743479785   -1.9869500160    1.1034759332
C        1.2201054963    0.4737597377    0.7530977501
C        2.2560561371   -0.3668512409    2.9050690894
C       -5.8629787248   -0.0233218887    2.1102788805
C        1.2332912324   -0.6565023521    1.7926696867
N       -4.5464871146   -0.9831016439    3.9119379297
N       -4.5874049906   -0.2340088111    2.7770210826
N       -0.1675706070   -0.8521039622    2.3104588929
O       -0.5241534963    1.5511753706    3.0679169028
O       -0.3462449826   -0.2538821380    4.8549278723
S       -0.7757499495    0.1790763226    3.5181096105
H       -2.9507636874   -1.4649274096    5.2007965308
H       -3.2192844435    0.8982800160    1.5759014464
H        1.6141368236   -2.8111015949    1.8259750552
H        0.8326500927   -2.2296199306    0.3360829215
H        2.5552551095   -1.9172289142    0.6246290265
H        0.9590954658    1.4275814943    1.2130034700
H        0.4903501722    0.2555444788   -0.0326820932
H        2.2101445924    0.5641490908    0.2939255384
H        2.0628021784    0.5952863365    3.3851385114
H        2.2315267934   -1.1413840092    3.6774445777
H        3.2639972752   -0.3348632585    2.4780860954
H       -6.3258605360   -0.9890487361    1.8978354715
H       -6.5267153815    0.5623386652    2.7511414857
H       -5.6897373406    0.5129955294    1.1762548208
H       -0.2815756797   -1.8018210198    2.6691478961
29   
Generated by ForceBalance from scan.xyz: Frame 24 of 24
C        1.5272977931   -0.6578142718    6.6187351448
C       -0.6653668764   -0.9820333149    6.8817859146
C        0.2682718100   -0.4417511069    6.0072351902
C        1.2596898726   -1.6077673212    1.3088066795
C       -0.7270917010   -0.0646621115    1.3985360536
C        1.6166160602    0.8522502690    1.6627065302
C       -0.4630428663   -2.1302166029    9.1205977185
C        0.6842564368   -0.3341276019    1.9482601604
N        1.3833491182   -1.2928919828    7.7798663727
N        0.0420858860   -1.4792538874    7.9220403996
N        0.7045557724   -0.6243485362    3.4259740898
O       -1.5869032691    0.3077926111    4.3690343071
O        0.5238171038    1.7061687157    4.4429755690
S       -0.1234952007    0.3948670460    4.5101400579
H        2.5078274886   -0.3810103399    6.2547876728
H       -1.7434089649   -1.0249970738    6.8162289649
H        2.2494234908   -1.8338548818    1.7165052623
H        0.6050402857   -2.4710484276    1.4806297793
H        1.3525118259   -1.4722720848    0.2273425356
H       -1.1458980795    0.8624267978    1.7954279742
H       -1.4151491686   -0.8764776167    1.6545261682
H       -0.6828899537    0.0193300315    0.3074861912
H        1.2452000380    1.7714517370    2.1178480589
H        2.6155272691    0.6551779755    2.0623188546
H        1.6944084448    1.0031311679    0.5810383251
H       -0.0017740183   -3.1145591139    9.2256154395
H       -0.2273265756   -1.5253535809    9.9994868000
H       -1.5447913158   -2.2405646550    9.0330440503
H        0.3306686312   -1.5613844438    3.5918613054
