30

C      3.14447   -2.28115   -6.24492
C      1.99674   -1.85535   -5.53505
C      2.46701   -1.63431   -4.23822
C      0.14752   -0.02980   -1.01321
C      1.47420    0.62040   -1.42716
C      0.18380   -1.54101   -1.27693
C      1.83178    0.26298   -2.87130
C      0.56666   -1.83011   -2.73048
C      0.60476   -1.67564   -6.07432
C      4.74272   -1.81758   -3.15157
N      4.23865   -2.31514   -5.47586
N      3.80719   -1.93250   -4.25273
N      1.85589   -1.20001   -3.04630
H      3.21726   -2.55813   -7.29091
H     -0.67178    0.41880   -1.59197
H     -0.06466    0.17124    0.04281
H      1.42020    1.71040   -1.32479
H      2.27766    0.26808   -0.76853
H      0.92008   -2.01441   -0.61604
H     -0.79089   -1.99416   -1.06179
H      1.10550    0.72864   -3.56207
H      2.81951    0.65461   -3.13067
H      0.66557   -2.90615   -2.89882
H     -0.23632   -1.46435   -3.39349
H     -0.08235   -2.45305   -5.72036
H      0.17737   -0.70798   -5.79137
H      0.61438   -1.72200   -7.16756
H      5.42440   -2.66970   -3.17690
H      5.32568   -0.89287   -3.22605
H      4.17540   -1.81387   -2.21973
