26

C      2.57388   -3.75764    2.96394
C      2.01362   -4.64726    2.03735
C      1.97678   -2.51115    3.15915
C      0.87272   -4.29295    1.31906
C      0.83069   -2.13785    2.44478
C      0.28035   -3.03825    1.52359
C      0.95187    1.58504   -0.39309
C      1.00701    0.36707   -0.94647
C     -0.78443   -0.33964    0.44917
C     -0.25102    1.95142    0.44775
C     -1.53358   -1.55159    0.97103
N     -0.89230    0.77618    1.06399
N     -0.03097   -0.55623   -0.70350
O     -0.83855   -2.78207    0.75606
H      3.46297   -4.03468    3.52335
H      2.46507   -5.62270    1.87514
H      2.40304   -1.80938    3.87140
H      0.42184   -4.97309    0.60189
H      0.39852   -1.15676    2.60449
H      1.76497    2.29030   -0.53240
H      1.82631    0.01177   -1.56272
H      0.02949    2.64342    1.24921
H     -1.00615    2.47876   -0.15736
H     -2.46953   -1.66530    0.41727
H     -1.76815   -1.39171    2.02644
H      0.15343   -1.53023   -0.91545
