30

C      5.49815   -2.13640   -1.45127
C      5.67577   -2.51056   -0.11474
C      4.54688   -1.16425   -1.77581
C      4.90350   -1.91519    0.88562
C      3.78213   -0.56429   -0.77249
C      3.95772   -0.93212    0.56661
C      3.49850    1.99595    4.53379
C      2.47408    2.51863    5.52620
C      4.23675    2.06156    1.40391
C      3.15392   -0.28562    1.67713
C      3.85989    0.90292    2.35097
N      2.99292    1.38573    3.42067
O      4.71061    2.10781    4.72942
O      5.38519    1.78617    0.60600
O      1.88157    0.21310    1.22917
H      6.09441   -2.60096   -2.23240
H      6.40777   -3.27064    0.14630
H      4.40745   -0.86521   -2.81158
H      5.03908   -2.21644    1.92311
H      3.06139    0.20790   -1.02438
H      2.66800    2.06457    6.50152
H      2.60930    3.59834    5.63482
H      1.43938    2.31549    5.23600
H      4.39039    2.95751    2.01687
H      3.41945    2.25879    0.70665
H      2.98693   -1.03381    2.46555
H      4.77522    0.53556    2.82378
H      1.99742    1.39147    3.23699
H      6.15157    1.73435    1.19869
H      1.41055   -0.51629    0.79592
