26

C      1.81730   -0.54342    0.21801
C      2.73915    0.11876    1.03376
C      0.99099   -1.53108    0.76648
C      2.82789   -0.20670    2.39132
C      1.07673   -1.84779    2.12309
C      1.99614   -1.18580    2.94655
C      0.07378    1.33097    4.01946
C      0.43692    2.75524    3.63803
C      0.89256   -0.69899    5.16516
C      2.02744   -1.45467    4.43268
N      0.92181    0.73286    4.92679
O     -0.90166    0.75646    3.54640
O      1.88919   -2.86180    4.65383
H      1.74483   -0.29450   -0.83766
H      3.39186    0.88051    0.61444
H      0.27183   -2.04794    0.13630
H      3.55671    0.30262    3.01934
H      0.43076   -2.60809    2.55093
H      0.92829    2.72993    2.65998
H     -0.47827    3.34207    3.54078
H      1.10720    3.24038    4.35415
H      0.96202   -0.89475    6.24423
H     -0.07111   -1.06612    4.80929
H      2.99374   -1.10741    4.83219
H      1.76081    1.23711    5.18172
H      1.83235   -3.01558    5.61067
