21

C     -1.52481   -0.28335    0.69764
C     -0.18293   -0.51749    0.31154
C     -2.51764   -1.22462    0.45196
C      0.20687   -1.68553   -0.33903
C     -2.13799   -2.40586   -0.20338
C     -0.80374   -2.62428   -0.60242
C      0.18734   -4.66507   -1.80057
C      2.23417   -4.54215   -3.12596
N     -2.89322   -3.51497   -0.55796
N     -2.13125   -4.38064   -1.12630
N     -0.84233   -3.87726   -1.18149
N      1.15634   -3.89302   -2.38223
O      0.17856   -5.87818   -1.76556
H     -1.77441    0.64497    1.20322
H      0.56890    0.23390    0.53701
H     -3.54835   -1.06775    0.75488
H      1.24452   -1.86362   -0.60001
H      3.02001   -3.80798   -3.31556
H      1.88291   -4.95799   -4.07698
H      2.64111   -5.35569   -2.52430
H      0.89842   -2.95249   -2.65488
