27

C      1.80992   -0.82298    1.52234
C      1.78662   -5.64575    5.97278
C      0.52710   -0.40992    1.14656
C      1.58804   -6.27999    4.74249
C      1.98342   -1.40953    2.77333
C      1.60343   -4.26932    6.08609
C     -0.52141   -0.60582    2.04695
C      1.20975   -5.48296    3.66262
C      0.86104   -1.56370    3.59341
C      1.21553   -3.56281    4.93147
C      0.85470   -1.34913    6.03647
C      0.65667    0.13552    5.78977
N     -0.36494   -1.17609    3.25130
N      1.02540   -4.16101    3.74903
N      1.01948   -2.15122    4.90115
O      0.88115   -1.80114    7.17561
H      2.65688   -0.68755    0.85494
H      2.08557   -6.21725    6.84783
H      0.34143    0.05310    0.18186
H      1.72054   -7.35096    4.62194
H      2.95450   -1.75358    3.11446
H      1.73877   -3.75691    7.02604
H     -1.53402   -0.29601    1.79459
H      1.04150   -5.92043    2.67950
H     -0.35132    0.32121    5.41054
H      1.36270    0.53438    5.05654
H      0.78559    0.64326    6.74573
