30

C      5.74893   -2.20826   -1.33970
C      5.56825   -2.58692   -0.00515
C      5.04211   -1.11307   -1.84800
C      4.69599   -1.86557    0.81510
C      4.17048   -0.39302   -1.02502
C      3.99820   -0.75665    0.31796
C      3.72532    3.20382    0.46604
C      4.38381    4.02697   -0.62285
C      5.03400    0.72560    2.85090
C      3.12023    0.07501    1.23350
C      3.91232    1.21135    1.92915
N      4.47294    2.16780    0.97154
O      2.59541    3.46738    0.88429
O      5.55501    1.78424    3.64823
O      2.03286    0.60643    0.48289
H      6.42276   -2.77060   -1.98093
H      6.09916   -3.44727    0.39422
H      5.16163   -0.82639   -2.89002
H      4.55241   -2.17532    1.84835
H      3.58988    0.43368   -1.42185
H      3.76539    3.97293   -1.52293
H      4.40726    5.07227   -0.30408
H      5.39952    3.70179   -0.86275
H      5.83006    0.24611    2.26360
H      4.64265   -0.01845    3.54954
H      2.73378   -0.57164    2.03590
H      3.20561    1.77662    2.54326
H      5.24343    1.83536    0.40139
H      5.74846    2.52584    3.05062
H      1.83457    1.50792    0.79780
