36

C     -4.27055    1.37331   -8.40722
C     -5.59995    0.91008   -8.29910
C     -3.49589    1.61687   -7.27588
C     -6.17729    0.66762   -7.05333
C     -4.59319    1.07433   -3.82817
C     -4.05777    1.40238   -6.00413
C     -3.57045    1.51242   -4.64646
C     -5.39290    0.91198   -5.92007
C     -2.23666    1.88258   -4.11570
C      0.02975    4.99076   -6.02643
C     -1.39611    4.66376   -6.48646
C      0.68308    3.75121   -5.40310
C     -2.21375    4.04938   -5.34791
C     -0.18128    3.16731   -4.28288
C     -6.95983    0.23603   -4.06701
N     -5.69447    0.72880   -4.57745
N     -1.53314    2.87841   -4.77592
O     -1.76224    1.28761   -3.14095
H     -3.84470    1.53564   -9.39392
H     -6.17924    0.73027   -9.20068
H     -2.46859    1.95398   -7.37070
H     -7.19528    0.29612   -6.97239
H     -4.59816    0.98511   -2.75005
H     -0.00593    5.79629   -5.27994
H      0.62828    5.36273   -6.86558
H     -1.90665    5.56496   -6.84492
H     -1.35981    3.95797   -7.32486
H      0.82869    2.98417   -6.17408
H      1.67193    3.99681   -4.99931
H     -2.34885    4.80286   -4.55380
H     -3.20542    3.76538   -5.69385
H      0.23970    2.24087   -3.89353
H     -0.23659    3.87480   -3.44002
H     -7.78098    0.90173   -4.35395
H     -7.16822   -0.76826   -4.45137
H     -6.91251    0.18929   -2.97802
