24   

C       -2.3375651222   -2.2523546022    1.5195067360
C       -4.1285763696    1.8601101890    2.3102038684
C       -4.6383462238   -0.4634091804    2.6509601359
C       -5.3742079409    2.2120991307    2.8425367750
C       -5.8853804047   -0.1052710395    3.1771977287
C       -3.7276528366    0.5161921143    2.1945944815
C       -6.2664519383    1.2325905318    3.2777535526
C       -2.3902685079    0.2463958058    1.6055404736
C       -0.3696257212   -1.0527428876    0.8011800953
C       -1.7355851253   -0.9573049848    1.3446762704
C        1.6312088200    1.8713766806    1.1447931686
N       -2.7848154531   -3.3213641339    1.6389012449
N        0.5973867405   -0.2022592971    0.7263207960
O        0.4438943053    1.0906175187    1.2806855169
Cl      -7.8238442501    1.6705818102    3.9348381738
H       -3.4663096170    2.6534311100    1.9827847414
H       -4.4345590719   -1.5219286640    2.6232623774
H       -5.6556481313    3.2557885464    2.9191700860
H       -6.5678718215   -0.8777702226    3.5126829067
H       -1.8743075047    1.1458944130    1.3030938252
H       -0.0964542548   -2.0274127866    0.4111490356
H        1.4453725173    2.8893913364    1.4990007194
H        1.9396276211    1.9140595686    0.0956148041
H        2.4391621142    1.4326174678    1.7379494411
24   

C       -2.2844868117   -2.2454691416    1.5651327103
C       -4.1942615047    1.8551230136    2.1704889882
C       -4.5884126633   -0.4539312488    2.7079218379
C       -5.4170409807    2.2008830908    2.7572994386
C       -5.8122953402   -0.1024788469    3.2899548023
C       -3.7487424715    0.5214976396    2.1250323604
C       -6.2394629496    1.2249916341    3.3201115566
C       -2.4423490634    0.2540529470    1.4716758379
C       -0.4373548208   -1.0072448735    0.6072751960
C       -1.7708317108   -0.9438636456    1.2377005839
C        1.6298299075    1.7783650866    1.3662353928
N       -2.6660417824   -3.3193292952    1.8065016397
N        0.5489456292   -0.1778049219    0.6231290584
O        0.4154440786    1.0280746435    1.3539306329
Cl      -7.7677527026    1.6548353556    4.0472009787
H       -3.5859213356    2.6442345302    1.7434457610
H       -4.3425275562   -1.5035111751    2.7406607382
H       -5.7352219660    3.2366111240    2.7771219128
H       -6.4399266510   -0.8718049180    3.7250761597
H       -1.9581378138    1.1407248448    1.0829851336
H       -0.2030982106   -1.9415110190    0.1087200529
H        1.4648705423    2.7387279657    1.8630451318
H        1.9712776836    1.9646169408    0.3432757363
H        2.4055371707    1.2287674562    1.9078941423
24   

C       -2.2014762762   -2.2074926695    1.6283605722
C       -4.2566322054    1.8498853001    2.0963868525
C       -4.5706612430   -0.4517127127    2.7136693929
C       -5.4601442097    2.1840442753    2.7279545144
C       -5.7737808645   -0.1114729816    3.3437151150
C       -3.7807069146    0.5265160000    2.0699784350
C       -6.2309283247    1.2064042311    3.3571425118
C       -2.4978209302    0.2700371738    1.3694331629
C       -0.5021179045   -0.9380206954    0.4388648750
C       -1.8013247417   -0.9149542721    1.1508452071
C        1.6247469745    1.6730190736    1.5382534599
N       -2.4961698490   -3.2746515385    1.9908063775
N        0.5031068940   -0.1406384770    0.5380601091
O        0.3888712102    0.9701165849    1.4105489799
Cl      -7.7333019639    1.6222847182    4.1438915243
H       -3.6877411467    2.6395084918    1.6188653299
H       -4.2997607960   -1.4948186858    2.7575809723
H       -5.8032682684    3.2119744974    2.7316082786
H       -6.3615135087   -0.8819615292    3.8295233326
H       -2.0429473292    1.1510128020    0.9317019498
H       -0.3079562608   -1.8222942008   -0.1578493824
H        1.4862460051    2.5495280651    2.1776690653
H        1.9749400712    2.0045546554    0.5558674640
H        2.3823597418    1.0239159317    1.9876787481
24   

C       -2.0782022028   -2.1270413610    1.6999928338
C       -4.3211560312    1.8474798746    2.0203851665
C       -4.5341022301   -0.4425526012    2.7193571249
C       -5.5128474329    2.1614733708    2.6838016487
C       -5.7239778592   -0.1218633575    3.3839502045
C       -3.8004369956    0.5410059117    2.0203110091
C       -6.2253375154    1.1800309888    3.3730868086
C       -2.5341415732    0.3038887340    1.2853789092
C       -0.5399750684   -0.8445091345    0.2985601235
C       -1.8025910781   -0.8618576309    1.0870999530
C        1.6707536220    1.5441338070    1.6786283047
N       -2.2778496452   -3.1726962908    2.1731186380
N        0.4930966750   -0.1014586829    0.4732040384
O        0.4142387603    0.8980252892    1.4751001176
Cl      -7.7110437230    1.5716050246    4.2027752783
H       -3.7975265431    2.6391003654    1.4966300422
H       -4.2268195207   -1.4748850515    2.7801506963
H       -5.8920140868    3.1765237106    2.6659262261
H       -6.2665361159   -0.8950069808    3.9158619384
H       -2.1158737316    1.1813587115    0.8045303985
H       -0.4013581840   -1.6612975582   -0.4005442488
H        1.5772141456    2.2914837173    2.4717202473
H        1.9912936115    2.0429732253    0.7589207136
H        2.4294790700    0.8118791178    1.9712660653
24   

C       -1.9593587537   -1.9841903262    1.7756269911
C       -4.4621166851    1.8451007814    1.8966247815
C       -4.4921633243   -0.3953267952    2.7673571136
C       -5.6487043661    2.1283140383    2.5826678967
C       -5.6767506070   -0.1049085257    3.4549115840
C       -3.8530607005    0.5795861602    1.9704769280
C       -6.2667725260    1.1565073494    3.3698516145
C       -2.6002547216    0.3711850423    1.2049717188
C       -0.5913677596   -0.7076714819    0.1827039262
C       -1.8084924971   -0.7598974629    1.0500869482
C        1.7805589898    1.3453352355    1.7992718344
N       -2.0628605784   -2.9973334980    2.3413856927
N        0.4870932254   -0.0532008256    0.4128416858
O        0.4877660519    0.7942776925    1.5490267181
Cl      -7.7453869689    1.5103490839    4.2286459534
H       -4.0135399409    2.6279391042    1.2957297776
H       -4.1116166324   -1.3974170299    2.8899805052
H       -6.0977760554    3.1116248874    2.5060527043
H       -6.1451334169   -0.8699222347    4.0635277130
H       -2.2472999353    1.2386157890    0.6578749672
H       -0.5496795593   -1.4123982698   -0.6395977373
H        1.7633157607    1.9183690641    2.7307216354
H        2.0700282519    2.0104126492    0.9800534002
H        2.5228648395    0.5463788427    1.8904810241
24   

C       -1.8204039539   -1.7665053661    1.8704163927
C       -4.7138290663    1.7776379180    1.7017054007
C       -4.4389070591   -0.3151566794    2.8519798782
C       -5.8939986908    2.0156356491    2.4153851391
C       -5.6193906790   -0.0708852520    3.5641078978
C       -3.9566458783    0.6088882208    1.8993736047
C       -6.3581782055    1.0937882936    3.3538332093
C       -2.7212387916    0.4431864112    1.0959127399
C       -0.6367086240   -0.5113007818    0.1076312839
C       -1.7989260670   -0.5941815260    1.0501650071
C        1.9805844218    1.0623035580    1.8711375934
N       -1.8226639045   -2.7375554803    2.5142935779
N        0.4983718764    0.0267339744    0.3584962557
O        0.6408099928    0.6325420358    1.6320690308
Cl      -7.8297850086    1.3909547413    4.2454990065
H       -4.3876596898    2.5199126046    0.9821691111
H       -3.9349140170   -1.2408496143    3.0823104340
H       -6.4583856314    2.9244831113    2.2423507917
H       -5.9668674860   -0.7957711830    4.2913377671
H       -2.4959969684    1.2678924278    0.4288120856
H       -0.7531634264   -0.9827894395   -0.8610178862
H        2.0618106128    1.4697150460    2.8829171214
H        2.2596618233    1.8396775267    1.1534684533
H        2.6720085827    0.2197705433    1.7733577140
24   

C       -1.6789809878   -1.4939832064    1.9678020214
C       -4.9956298177    1.6195027840    1.5015395793
C       -4.3758926430   -0.1990210360    2.9463207389
C       -6.1717489583    1.8041942591    2.2372522517
C       -5.5557125974   -0.0115667377    3.6765935957
C       -4.0695323487    0.6138903879    1.8331060451
C       -6.4642577290    0.9891782182    3.3308492285
C       -2.8492250573    0.4976441498    0.9982260211
C       -0.6615269247   -0.2592715571    0.0810745943
C       -1.7741845763   -0.3789471581    1.0744385095
C        2.2073548624    0.7390114451    1.8790442530
N       -1.5904882917   -2.4176006478    2.6727532286
N        0.5292294732    0.1428865108    0.3309301293
O        0.8225863632    0.4572029872    1.6819442708
Cl      -7.9324462043    1.2181719823    4.2478851627
H       -4.8061572926    2.2760411582    0.6600589686
H       -3.7299581470   -0.9905131767    3.2933284294
H       -6.8672307962    2.5878767240    1.9603696167
H       -5.7682660405   -0.6510889479    4.5256502951
H       -2.7681590821    1.2367338118    0.2090483693
H       -0.9106092917   -0.4147941278   -0.9619115036
H        2.3846636092    0.9960857815    2.9272797778
H        2.5141226560    1.5816190140    1.2519543304
H        2.8106232913   -0.1371873519    1.6231174488
24   

C       -2.2439047991   -2.3543558026    1.8998735438
C       -4.2729742543    1.7197536369    1.5836624771
C       -4.3834645220   -0.2840743816    2.9069500431
C       -5.3858238782    2.2299561041    2.2616612489
C       -5.4998842872    0.2294530944    3.5781358214
C       -3.7456817557    0.4503819280    1.8833949872
C       -6.0121731922    1.4884618294    3.2633935659
C       -2.5610090831   -0.0030137800    1.1146737160
C       -0.6748079127   -1.3588787566    0.2536256830
C       -1.8425303048   -1.1919826809    1.1630587128
C        2.0340359375   -2.5761725916    2.1712419495
N       -2.5683251102   -3.3135071908    2.4769489258
N        0.5147122748   -1.7077308038    0.5856394239
O        0.7478585662   -1.9987035288    1.9535849940
Cl      -7.4029242676    2.1233832127    4.1069786145
H       -3.8160875961    2.3297390090    0.8128339788
H       -4.0493114884   -1.2585119601    3.2281918292
H       -5.7703935711    3.2117450234    2.0111581045
H       -5.9741064919   -0.3568637734    4.3568489576
H       -2.1748776316    0.7275724173    0.4127343329
H       -0.7984478939   -1.0258402869   -0.7700727805
H        2.1749323595   -2.7665723909    3.2390684906
H        2.8171440860   -1.8936046128    1.8276239786
H        2.1190330056   -3.5228558578    1.6293595338
24   

C       -2.0704835847   -2.1765831022    2.0973384390
C       -4.3909904949    1.6979747740    1.5159174520
C       -4.3513534186   -0.2098600689    2.9775788821
C       -5.5423990729    2.1673627004    2.1578766194
C       -5.5067707151    0.2621038088    3.6124429021
C       -3.7681307658    0.4971923423    1.9032540527
C       -6.1135498534    1.4523313442    3.2103587008
C       -2.5495624582    0.0849157670    1.1638236435
C       -0.5779881383   -1.1589223108    0.3723664611
C       -1.7447115288   -1.0443273593    1.2781984468
C        2.0638072063   -2.8404835811    2.0269561973
N       -2.3363017764   -3.1104106700    2.7423251613
N        0.5878657615   -1.6353078195    0.6300090262
O        0.8394406352   -2.1138518404    1.9403595829
Cl      -7.5524646285    2.0359370019    4.0090167441
H       -3.9806081830    2.2857568542    0.7028372650
H       -3.9447634038   -1.1299874616    3.3677125848
H       -6.0006892184    3.0962956776    1.8390582805
H       -5.9374381692   -0.3026176824    4.4313844867
H       -2.2217255330    0.7994893619    0.4171858101
H       -0.6757536579   -0.6951092742   -0.6021020197
H        2.1979663527   -3.2123714878    3.0468053896
H        2.9062167305   -2.1897918454    1.7739708947
H        2.0476981265   -3.6919352086    1.3400318600
24   

C       -1.9331843839   -2.0117265858    2.3022586233
C       -4.4546404241    1.6850477646    1.4837641372
C       -4.3560193499   -0.1585116020    3.0225685367
C       -5.6387840620    2.1255956075    2.0851323041
C       -5.5436736781    0.2848923420    3.6174206739
C       -3.7835753839    0.5316993446    1.9313169978
C       -6.1964227150    1.4283711737    3.1563725718
C       -2.5332907836    0.1498699615    1.2275342545
C       -0.4981836799   -1.0008384557    0.5017708120
C       -1.6683757304   -0.9290097054    1.3971401852
C        2.0864155711   -3.0258523115    1.8566621250
N       -2.1511333913   -2.9042549316    3.0199301883
N        0.6362471710   -1.5849676878    0.6701434873
O        0.8891786449   -2.2517172741    1.8944808978
Cl      -7.6756362885    1.9762631744    3.9051315872
H       -4.0573883743    2.2582601210    0.6539296816
H       -3.9192941959   -1.0440827866    3.4567357664
H       -6.1334523156    3.0179375168    1.7195470426
H       -5.9639766997   -0.2658953080    4.4511130364
H       -2.2405072742    0.8476673712    0.4511176578
H       -0.5667652004   -0.4300797667   -0.4168189457
H        2.2056176006   -3.5620064544    2.8025850011
H        2.9516204074   -2.3728575164    1.7085092187
H        2.0409919534   -3.7541931032    1.0414734021
24   

C       -3.0037669818   -1.9072035395    0.4048070009
C       -4.0618812115    2.0851238885    2.3031361755
C       -4.5760966437   -0.2496680987    2.5463262859
C       -4.9575106854    2.3914302424    3.3335833022
C       -5.4729495152    0.0635065947    3.5752331555
C       -3.8473937912    0.7600064136    1.8791408676
C       -5.6731109855    1.3836565205    3.9789351915
C       -2.8741313028    0.5439611163    0.7777698900
C       -1.4551786517   -0.4364430594   -0.9468528024
C       -2.4541737722   -0.6113352694    0.1190144262
C       -0.0626976414   -3.4973802740   -2.1182619251
N       -3.4558595593   -2.9594361944    0.6237194257
N       -0.7349434441   -1.2952464606   -1.5813668447
O       -0.8265712262   -2.6679425607   -1.2452132773
Cl      -6.7921069373    1.7656575584    5.2637761340
H       -3.5277925222    2.9013545951    1.8303591999
H       -4.4859087260   -1.2984813842    2.3125889703
H       -5.1016386476    3.4213440180    3.6387790850
H       -6.0211493268   -0.7308122712    4.0688121990
H       -2.4054232537    1.4592404056    0.4344713552
H       -1.2592008906    0.5865217420   -1.2456664825
H       -0.2083102041   -4.5467176477   -1.8459183387
H        1.0005430029   -3.2540866585   -2.0333876151
H       -0.3838349072   -3.3536245062   -3.1542298412
24   

C       -2.8064510763   -1.9340898269    0.6016928390
C       -4.1005970674    2.0891626190    2.2728577913
C       -4.5687747568   -0.2494564155    2.5659080385
C       -5.0371099598    2.4026651090    3.2640098994
C       -5.5048692810    0.0707288172    3.5570338924
C       -3.8397604279    0.7580844189    1.8956692893
C       -5.7487013709    1.3964053034    3.9159713496
C       -2.8260378686    0.5361316760    0.8321672340
C       -1.3163649093   -0.4483061282   -0.8066626124
C       -2.3401342554   -0.6264459398    0.2329625435
C       -0.1534760374   -3.4866487623   -2.2637578299
N       -3.1822286637   -2.9974094294    0.8979612178
N       -0.6806834443   -1.3002315620   -1.5344412011
O       -0.9399047771   -2.6842558253   -1.3855917551
Cl      -6.9175873854    1.7871967539    5.1528499158
H       -3.5715048636    2.9048117342    1.7935039886
H       -4.4525051019   -1.3016326104    2.3612438452
H       -5.2165556922    3.4370982251    3.5330747999
H       -6.0505026353   -0.7224129257    4.0553344602
H       -2.3904674745    1.4566318336    0.4605105471
H       -1.0303011995    0.5760338204   -1.0139343184
H       -0.4019203374   -4.5415741184   -2.1157431418
H        0.9107225115   -3.3415173857   -2.0556140272
H       -0.3572517703   -3.2182166429   -3.3046076380
24   

C       -2.6037150066   -1.9405237091    0.7925119273
C       -4.1288791057    2.0903354224    2.2375691628
C       -4.5530614895   -0.2517494441    2.5684861625
C       -5.1058816132    2.4034339174    3.1890033986
C       -5.5279802659    0.0679480200    3.5215940259
C       -3.8232896581    0.7577283292    1.9021594153
C       -5.8142138658    1.3951722310    3.8415641550
C       -2.7700979446    0.5350743604    0.8783459190
C       -1.1717387396   -0.4595188385   -0.6722969044
C       -2.2227508215   -0.6306577548    0.3430446736
C       -0.3008705066   -3.4777163968   -2.3495824452
N       -2.8998225374   -3.0057611880    1.1627786902
N       -0.6315431738   -1.3036699054   -1.4813762099
O       -1.0811410365   -2.6465900289   -1.4927853627
Cl      -7.0323899103    1.7854646255    5.0300984241
H       -3.6037168705    2.9072306812    1.7560202222
H       -4.4103160957   -1.3048773318    2.3859741141
H       -5.3197422933    3.4390788300    3.4263695654
H       -6.0716416501   -0.7266582553    4.0197121758
H       -2.3630565725    1.4554636290    0.4752623736
H       -0.7919708005    0.5481909648   -0.7925167235
H       -0.6572580299   -4.5096353069   -2.2816484524
H        0.7513007390   -3.4471880916   -2.0512009789
H       -0.3915830369   -3.1395867997   -3.3860733261
24   

C       -2.3822467273   -1.9342920784    0.9819202827
C       -4.1496811504    2.0772267046    2.1943791155
C       -4.5114769822   -0.2692870194    2.5676885922
C       -5.1674606910    2.3805958014    3.1054405415
C       -5.5259758522    0.0407273417    3.4818295729
C       -3.7907869705    0.7477808238    1.9035434417
C       -5.8639186339    1.3652934849    3.7602426020
C       -2.6992623583    0.5319364669    0.9205496342
C       -1.0146782546   -0.4750098126   -0.5425437729
C       -2.0923631645   -0.6314481071    0.4525429521
C       -0.4940124719   -3.4499359614   -2.4118408151
N       -2.5973631200   -2.9927830125    1.4206449867
N       -0.5810479191   -1.3027337013   -1.4276379628
O       -1.2100110823   -2.5663217747   -1.5512243469
Cl      -7.1319471214    1.7436330866    4.8994826153
H       -3.6350592612    2.8984739891    1.7088679298
H       -4.3320491304   -1.3210036938    2.4089229757
H       -5.4227335901    3.4139888892    3.3092938882
H       -6.0606566456   -0.7591943256    3.9811353439
H       -2.3190541540    1.4486863530    0.4841145606
H       -0.5467251496    0.5013696038   -0.5870141612
H       -0.9935643971   -4.4227362507   -2.4352114614
H        0.5286227283   -3.5869824955   -2.0478360636
H       -0.4635634673   -3.0432666506   -3.4270443442
24   

C       -2.1693763200   -1.9215364679    1.1806625953
C       -4.1795678377    2.0576410661    2.1124110726
C       -4.4468739965   -0.2835359409    2.5869662722
C       -5.2400966489    2.3549142120    2.9755942761
C       -5.5038880249    0.0206318969    3.4535771816
C       -3.7513576546    0.7344876007    1.8983731662
C       -5.9106840799    1.3395513438    3.6571553646
C       -2.6205535509    0.5207707314    0.9616932161
C       -0.8439075396   -0.5089418113   -0.3960750777
C       -1.9560263726   -0.6386659650    0.5740871196
C       -0.7204060747   -3.3775877683   -2.4700470599
N       -2.3190528750   -2.9636230730    1.6810204789
N       -0.5247051474   -1.3040526962   -1.3544188793
O       -1.3179185351   -2.4617260559   -1.5542229923
Cl      -7.2316670391    1.7106081933    4.7370894665
H       -3.6869117500    2.8777871356    1.6028495147
H       -4.2141180437   -1.3317839303    2.4816341449
H       -5.5493900412    3.3834403654    3.1207259380
H       -6.0179252876   -0.7793721268    3.9739735081
H       -2.2645172967    1.4264562167    0.4836383260
H       -0.2837234485    0.4182251319   -0.3673308460
H       -1.3527626009   -4.2648804640   -2.5661208864
H        0.2657744219   -3.6844054964   -2.1089297286
H       -0.6142493228   -2.9105983124   -3.4537660646
24   

C       -1.9618382707   -1.9123904372    1.4231887960
C       -4.2101200854    2.0166488883    1.9898997308
C       -4.3616779133   -0.2916135711    2.6437280618
C       -5.3109706689    2.3191299145    2.7992664544
C       -5.4593939548    0.0180935325    3.4559378229
C       -3.7036178979    0.7076676504    1.8938421099
C       -5.9444726926    1.3233666969    3.5427131125
C       -2.5364382097    0.4835928730    1.0063684369
C       -0.6713298334   -0.5808436197   -0.2283932748
C       -1.8111469812   -0.6687101956    0.7262932735
C       -0.9784458486   -3.2381573180   -2.5393923406
N       -2.0584436677   -2.9235138652    1.9946223189
N       -0.4720696734   -1.3200230093   -1.2584505560
O       -1.4104339271   -2.3534381753   -1.5070316252
Cl      -7.3158234060    1.7012319396    4.5554165177
H       -3.7484025265    2.8205196467    1.4281083371
H       -4.0670495566   -1.3295433918    2.6280505094
H       -5.6811747100    3.3362667558    2.8534371463
H       -5.9437228638   -0.7669339639    4.0253318915
H       -2.2088838389    1.3639211157    0.4647940677
H       -0.0122899015    0.2734700649   -0.1285149777
H       -1.7367970969   -4.0091504366   -2.7031904261
H       -0.0393508514   -3.7214149839   -2.2536516169
H       -0.8292095773   -2.6854373218   -3.4718344092
24   

C       -2.7750763730   -1.6415483457    0.1851310177
C       -3.6710061236    1.5636049940    3.3217400213
C       -4.8007195033   -0.1613134234    2.0860863298
C       -4.8597814656    1.8580105403    3.9990808157
C       -5.9862862633    0.1356537413    2.7692058711
C       -3.6083200724    0.5470270778    2.3514268582
C       -6.0286693380    1.1456496254    3.7307544302
C       -2.3055328931    0.3110824004    1.6829469187
C       -0.5259410879   -0.6120492509    0.2060571793
C       -1.9375490094   -0.6014390722    0.7022061101
C       -0.6265941832    0.4090365634   -3.1715205951
N       -3.4334846050   -2.5064150299   -0.2348272598
N       -0.1358068793   -0.2412133178   -0.9569651526
O       -1.1447588015    0.1715235169   -1.8634842341
Cl      -7.5116280486    1.5115660036    4.5768709751
H       -2.7859911935    2.1426652545    3.5593675392
H       -4.8662056513   -0.9514546173    1.3543324225
H       -4.8799252098    2.6476606645    4.7410816095
H       -6.8874121817   -0.4248895113    2.5482326422
H       -1.5098889387    0.9794460613    1.9925700296
H        0.2501525909   -0.8429798258    0.9260561852
H       -1.4329248633    0.7411665604   -3.8317044604
H       -0.1928746124   -0.5096019354   -3.5779145251
H        0.1440123055    1.1851225619   -3.1370630087
24   

C       -2.7790387869   -1.9152037591    0.3546117579
C       -3.6952716507    1.7218775150    2.9807512162
C       -4.7588728501   -0.2798908718    2.1806173823
C       -4.8624096276    2.0665437948    3.6719580024
C       -5.9242395413    0.0709079101    2.8728634406
C       -3.6116111512    0.5423992228    2.2190435479
C       -5.9884652825    1.2445317925    3.6245204157
C       -2.3330495380    0.2600467002    1.5228413845
C       -0.5583397116   -0.8588911705    0.1693292580
C       -1.9458142884   -0.8154070930    0.7339882373
C       -0.6996030741    0.7417116119   -2.9698392246
N       -3.4308152046   -2.8296472642    0.0439676658
N       -0.1841475263   -0.3502671353   -0.9450962576
O       -1.1720490879    0.3509654543   -1.6810646121
Cl      -7.4453114093    1.6748524164    4.4855806461
H       -2.8428965881    2.3886923001    3.0432585125
H       -4.8028046036   -1.2040438941    1.6256480121
H       -4.8989007245    2.9811344914    4.2521915221
H       -6.7919501464   -0.5770759151    2.8253625655
H       -1.5672459569    1.0174106656    1.6487101016
H        0.1879772269   -1.4026156521    0.7363562273
H       -1.5071080483    1.2248342923   -3.5273412669
H       -0.3587625363   -0.1342463454   -3.5302121265
H        0.1307962369    1.4468791225   -2.8677985098
24   

C       -2.7784924222   -2.1329244016    0.5281639594
C       -3.7273037439    1.7932520708    2.6793304914
C       -4.7119964108   -0.3619003349    2.2740582339
C       -4.8671923386    2.1805528780    3.3931308214
C       -5.8515328000    0.0325875904    2.9855163207
C       -3.6190594156    0.5154664179    2.1018311688
C       -5.9411254984    1.3044727743    3.5519146297
C       -2.3709739086    0.1932975451    1.3686674838
C       -0.6171275668   -1.0473501612    0.0925855276
C       -1.9609721403   -0.9785651576    0.7450245941
C       -0.7131337062    1.0252705730   -2.7618308871
N       -3.4144616130   -3.0919876003    0.3465090782
N       -0.2442146510   -0.4224458250   -0.9631557509
O       -1.1601782685    0.5127432486   -1.5068169740
Cl      -7.3648227066    1.7882905384    4.4396332802
H       -2.9147630981    2.5037495714    2.5788311884
H       -4.7313591102   -1.3639352263    1.8745949286
H       -4.9228841763    3.1707673583    3.8299522539
H       -6.6786706187   -0.6586711381    3.0997419205
H       -1.6446871259    0.9975625182    1.3240198122
H        0.0576191919   -1.8169493555    0.4489438667
H       -1.4818982746    1.6748529695   -3.1899751017
H       -0.5165630705    0.2047576048   -3.4588088448
H        0.2043225557    1.6056079771   -2.6249715758
24   

C       -2.7938317289   -2.2821252747    0.6732330714
C       -3.7695350881    1.8040656227    2.4844838590
C       -4.6945916213   -0.4101559605    2.3440766125
C       -4.8887917912    2.2263287664    3.2109702256
C       -5.8134413005    0.0188063413    3.0683091102
C       -3.6424222983    0.4785352065    2.0319162953
C       -5.9223374689    1.3380679643    3.5089070172
C       -2.4181157819    0.1236030124    1.2737293505
C       -0.7136005239   -1.1923728431   -0.0040303020
C       -2.0063385797   -1.0866337586    0.7267614363
C       -0.6361273926    1.2016495560   -2.6039534650
N       -3.4021445631   -3.2742244143    0.6203916278
N       -0.3019883649   -0.4844557437   -0.9935787822
O       -1.1191238226    0.5986582054   -1.4036062752
Cl      -7.3200630647    1.8648791151    4.4132682719
H       -2.9884450294    2.5255371293    2.2734137245
H       -4.6965589825   -1.4479201595    2.0492925301
H       -4.9598229408    3.2535790427    3.5487963093
H       -6.6089524833   -0.6827304247    3.2920410191
H       -1.7153696758    0.9381899723    1.1369490524
H       -0.1147860760   -2.0706752422    0.2083700131
H       -1.3038274623    2.0146688453   -2.9030405302
H       -0.5974164024    0.4621464287   -3.4096478223
H        0.3669029320    1.6087664967   -2.4438702023
24   

C       -2.7889644805   -2.3645686435    0.7919289066
C       -3.8045615500    1.8038504986    2.3720632802
C       -4.6991044612   -0.4270047954    2.3639086305
C       -4.9014462235    2.2415470731    3.1232188785
C       -5.7940478342    0.0166689171    3.1152446865
C       -3.6724185742    0.4612877712    1.9738252684
C       -5.9067046013    1.3520333097    3.5026502711
C       -2.4705926358    0.0922045140    1.1852864629
C       -0.8159179975   -1.2735207655   -0.1204371556
C       -2.0577708428   -1.1355286286    0.6758838724
C       -0.5096188773    1.3306568735   -2.5028511634
N       -3.3477949670   -3.3835790217    0.8717266394
N       -0.3458310392   -0.5129112420   -1.0460099146
O       -1.0576433661    0.6710630021   -1.3616428412
Cl      -7.2748001166    1.8971176711    4.4408790860
H       -3.0451638424    2.5272226105    2.0978016997
H       -4.7003827922   -1.4757863075    2.1120452136
H       -4.9767839305    3.2819069112    3.4170943548
H       -6.5679018805   -0.6861350814    3.4021360032
H       -1.7885267858    0.9135063029    0.9986190466
H       -0.2854398385   -2.2123634544   -0.0070059675
H       -1.0544280651    2.2607605693   -2.6883087130
H       -0.5946167906    0.6893722351   -3.3853653039
H        0.5452399150    1.5673239135   -2.3329001047
24   

C       -2.7815145362   -2.3991857624    0.9062001447
C       -3.8486429179    1.8149935039    2.2955182934
C       -4.7193530649   -0.4235408223    2.3776366620
C       -4.9156833252    2.2594565172    3.0847995802
C       -5.7822323768    0.0262485417    3.1701950922
C       -3.7179523851    0.4642743545    1.9245867823
C       -5.8913320296    1.3688059483    3.5324036555
C       -2.5455024144    0.0887968632    1.0942510541
C       -0.9450626231   -1.3233069336   -0.2483162967
C       -2.1293498216   -1.1518267352    0.6163826867
C       -0.3579680858    1.4239981638   -2.4200483570
N       -3.2741912372   -3.4324554688    1.1221686232
N       -0.4089312742   -0.5383205065   -1.1185803382
O       -0.9994011088    0.7278203530   -1.3515353462
Cl      -7.2196586531    1.9215065611    4.5219315986
H       -3.1114043572    2.5398932964    1.9697273469
H       -4.7265538775   -1.4765063061    2.1444839596
H       -4.9903194836    3.3060071973    3.3559564059
H       -6.5339573208   -0.6774636676    3.5090362989
H       -1.8923271780    0.9192862599    0.8589277641
H       -0.4837566195   -2.3043152212   -0.2150694214
H       -0.7820346163    2.4279070762   -2.5131223960
H       -0.5087538406    0.8878229254   -3.3618302942
H        0.7155200993    1.5112932705   -2.2258176516
24   

C       -2.7625250196   -2.4233510535    0.9849671145
C       -3.9347891269    1.8079161737    2.1879439670
C       -4.7208693500   -0.4515107475    2.4164305131
C       -4.9677740019    2.2522372786    3.0212210667
C       -5.7482035016   -0.0017587734    3.2546792615
C       -3.7780126863    0.4467157625    1.8676542658
C       -5.8819826571    1.3511229188    3.5664348686
C       -2.6423203464    0.0745240262    0.9848708288
C       -1.0839655371   -1.3696797884   -0.3937241613
C       -2.2076454588   -1.1732093543    0.5384782330
C       -0.1698232461    1.4804942435   -2.3200736709
N       -3.1757054256   -3.4587805235    1.3229156436
N       -0.4793282197   -0.5709315366   -1.2063911282
O       -0.9254137629    0.7651029653   -1.3427846093
Cl      -7.1658215278    1.9037040315    4.6130935849
H       -3.2451703245    2.5420089880    1.7870816883
H       -4.7088300090   -1.5129568376    2.2261238209
H       -5.0633299387    3.3069949963    3.2508411604
H       -6.4527125840   -0.7137151494    3.6692517932
H       -2.0447774428    0.9231693852    0.6852047347
H       -0.6970871767   -2.3819827851   -0.4416099419
H       -0.4740140695    2.5311137626   -2.3244527124
H       -0.3452550147    1.0574516549   -3.3137395590
H        0.8987071612    1.4239778468   -2.0903144414
24   

C       -2.3715542403   -2.2612576559    1.4629268454
C       -4.0655564796    1.8165762753    2.5489640530
C       -4.7179562664   -0.4958051807    2.5177003333
C       -5.3425514384    2.1720110115    2.9974864191
C       -5.9945129904   -0.1335069679    2.9646241682
C       -3.7168049666    0.4766669274    2.2940713861
C       -6.3202117511    1.2004830484    3.2083630233
C       -2.3336879463    0.2081184755    1.8179618972
C       -0.3066549176   -1.1016173049    1.0097831080
C       -1.7047745089   -0.9856679089    1.4557584021
C        1.6027966320    1.9101119358    0.8969682184
N       -2.8641983470   -3.3168706967    1.4499359181
N        0.6380703922   -0.2364984354    0.8541275615
O        0.4308353185    1.1322098091    1.1392896706
Cl      -7.9145982180    1.6433699697    3.7658017414
H       -3.3372918620    2.6053194343    2.3979891699
H       -4.5662473143   -1.5521480827    2.3649727099
H       -5.5811275475    3.2124465567    3.1845780290
H       -6.7439708476   -0.9000114419    3.1253761879
H       -1.7529790627    1.1125810329    1.7459100765
H        0.0122660268   -2.1066283450    0.7545325277
H        1.3976317696    2.9623140113    1.1141529122
H        1.9071831787    1.8187000308   -0.1501248316
H        2.4207907771    1.5699540007    1.5392316191
