41

C     -1.27428   -2.79706    1.50935
C     -2.62323   -0.80391    1.45133
C     -2.40080   -3.55997    1.81671
C     -3.76181   -1.55235    1.75907
C     -0.08834    0.16657    5.01405
C     -1.23686    1.40688    3.76290
C     -1.36749   -1.41119    1.32528
C     -3.64086   -2.92970    1.94147
C     -0.97008    0.27516   -1.39473
C     -0.89493   -1.21609   -1.55425
C      0.04310   -0.51315   -0.58931
C      4.20018    0.58409   -0.94116
C     -0.10872    0.78807    1.56614
C      2.80396    0.55073   -0.31919
C     -0.09991   -0.63809    0.94830
N     -1.11527    1.06087    5.03833
N      0.42921   -0.04980    3.80828
N     -0.32167    0.76091    3.00673
O      1.60758    0.09197   -2.64155
O      2.26630   -1.91214   -1.23305
O      1.05525   -1.32944    1.40925
S      1.73955   -0.54328   -1.31132
Cl    -5.06271   -3.87939    2.33189
H     -0.30723   -3.27610    1.40065
H     -2.74589    0.26532    1.30862
H     -2.31904   -4.63337    1.95621
H     -4.72924   -1.07084    1.86003
H      0.29002   -0.33665    5.89414
H     -1.95310    2.10785    3.35366
H     -0.58902    0.88378   -2.20755
H     -1.81725    0.68502   -0.85277
H     -1.67095   -1.83361   -1.11907
H     -0.46005   -1.59708   -2.47234
H      4.64452   -0.41375   -0.94654
H      4.16677    0.96112   -1.96571
H      4.83846    1.24458   -0.34644
H      0.85049    1.26439    1.36096
H     -0.89126    1.41128    1.13482
H      2.33147    1.53690   -0.33683
H      2.80929    0.14175    0.69082
H      1.07300   -1.23234    2.38643
