46

C     -2.75104   -1.01848    5.55496
C      2.48493   -0.19720   -0.03267
C     -2.40561    0.08868    4.77698
C      1.29645    0.35795    0.43893
C     -3.69289   -1.94405    5.09546
C      1.09258   -1.55743    1.90837
C      4.37495   -3.17999   -0.75855
C     -3.93106   -0.64429    3.05054
C      5.36545   -1.04058   -0.33166
C      6.60419   -2.58038   -1.49116
C      3.00640   -1.41670    0.43279
C      2.29897   -2.11561    1.44788
C      4.26028   -1.89830   -0.20205
C     -2.98968    0.28512    3.51565
C      0.59090   -0.34851    1.42384
C      5.55704   -3.49493   -1.40398
C     -4.27630   -1.73761    3.84463
C      2.73823   -3.35695    2.09654
C     -1.29688    1.27013    1.80908
C     -3.62278    2.31299    2.01319
C     -2.79264    2.85047    3.14414
C     -2.56052    1.42854    2.64596
N      3.88441   -5.02118    2.77797
N      6.51030   -1.35799   -0.95471
N      3.94326   -3.95135    1.96990
N      1.94486   -4.03164    2.96180
N      2.68778   -5.06808    3.36983
N     -0.63656    0.09118    1.98465
O     -0.93532    2.17418    1.05024
F      5.70774   -4.72166   -1.97998
Cl    -5.46759   -2.88815    3.24956
H     -2.27919   -1.17359    6.52130
H      3.02225    0.32524   -0.82026
H     -1.66692    0.80021    5.13638
H      0.92032    1.29692    0.05739
H     -3.96196   -2.81156    5.68927
H      0.56474   -2.10484    2.68541
H      3.57562   -3.90748   -0.68290
H     -4.38192   -0.51641    2.07133
H      5.32355   -0.04682    0.11057
H      7.52879   -2.84937   -1.99957
H     -4.65827    2.05686    2.21616
H     -3.40316    2.68036    1.01660
H     -2.02243    3.57390    2.89878
H     -3.25848    2.95284    4.11977
H     -1.04089   -0.55681    2.64927
