52

C     -9.94658    0.24242    2.62538
C     -1.99291   -7.80388    1.14166
C     -8.69337    0.57225    2.10819
C    -10.21717   -1.08601    2.97643
C     -0.69475   -7.47947    1.55968
C     -2.78026   -6.82952    0.52829
C     -7.71683   -0.41458    1.92525
C     -9.24260   -2.06973    2.81498
C     -0.17595   -6.20261    1.33968
C     -2.28589   -5.52722    0.31623
C     -7.98623   -1.74360    2.27905
C     -0.95967   -5.23673    0.70333
C     -2.45269   -3.29003   -0.61637
C     -3.07851   -4.40900   -0.20880
C     -5.63052   -2.38474    1.96912
C     -7.38176   -3.82686    1.16471
C     -4.70961   -3.57400    2.20428
C     -6.51715   -5.06316    1.37231
C     -0.94156   -3.21483   -0.61139
C     -0.45684   -1.79051   -0.35280
C     -0.35712   -3.78536   -1.90983
C     -4.57510   -4.50025   -0.16738
N     -7.01727   -2.79311    2.13186
N     -5.04663   -4.71981    1.26937
O     -0.43873   -3.99114    0.52373
H    -10.70240    1.01000    2.76238
H     -2.37831   -8.80904    1.28152
H     -8.47005    1.59993    1.83548
H    -11.18281   -1.35273    3.39672
H     -0.07696   -8.23144    2.04180
H     -3.76789   -7.10835    0.16191
H     -6.75729   -0.13040    1.50518
H     -9.44503   -3.09001    3.13092
H      0.83402   -5.94216    1.64129
H     -3.00779   -2.42359   -0.96950
H     -5.38471   -1.63373    2.72382
H     -5.42348   -1.93102    0.98402
H     -7.30780   -3.46501    0.12411
H     -8.41972   -4.12516    1.31750
H     -3.66185   -3.32020    2.04351
H     -4.84213   -3.95931    3.21694
H     -6.67218   -5.46472    2.37590
H     -6.72872   -5.83825    0.63288
H      0.63332   -1.77526   -0.28355
H     -0.86834   -1.40291    0.58348
H     -0.76097   -1.13306   -1.17227
H      0.73525   -3.74406   -1.87430
H     -0.70075   -3.20032   -2.76823
H     -0.66623   -4.82359   -2.05849
H     -4.95884   -5.35189   -0.73542
H     -5.04580   -3.59535   -0.54482
H     -4.50858   -5.53186    1.59845
