29   
Generated by ForceBalance from scan.xyz: Frame 1 of 24
C       -2.5415819325    1.9682758253   -2.0440831082
C       -1.2738626297    1.7574743626   -2.5931238623
C       -2.8361747579    1.4644837635   -0.7713545895
C       -0.3103507903    1.0449476711   -1.8710085312
C       -1.8719268332    0.7536202330   -0.0547176638
C       -0.5994244530    0.5318992664   -0.5999696429
C        0.9755709630    0.4955310003    1.3991696795
C        0.0893487477   -1.6922813120    0.4793676592
C        1.1536624819   -1.3780824100   -0.5271946818
C        0.4484808466   -0.2256034377    0.1706681975
C        2.3568826598    0.4255965661    3.3780230652
C        3.3992998541    0.0092976928    1.2082213397
N        2.1531753069    0.0271064833    1.9842691524
O        0.2582352644    1.3054061881    1.9811747793
H       -3.2943263671    2.5203403444   -2.6013667572
H       -1.0341532806    2.1471666873   -3.5794316626
H       -3.8187390754    1.6294146346   -0.3361518839
H        0.6767197922    0.8856565727   -2.2996797374
H       -2.0970047770    0.3768039490    0.9381532542
H       -0.8809436166   -2.0305727114    0.1302838907
H        0.4077305769   -2.0839959606    1.4399501230
H        2.1728890975   -1.6334461854   -0.2698650826
H        0.9109113863   -1.5105358788   -1.5768274903
H        3.1505009904   -0.1980933776    3.8008551312
H        2.6438760007    1.4817842901    3.4699295158
H        1.4372409219    0.2724072225    3.9429951479
H        4.0360588558    0.8531164736    1.5067335357
H        3.9579798372   -0.9188330549    1.3771160799
H        3.1981132782    0.1160379961    0.1441334635
29   
Generated by ForceBalance from scan.xyz: Frame 2 of 24
C       -2.4280468432    2.0274862918   -2.0605345385
C       -1.1460521229    1.7754349263   -2.5571706138
C       -2.7997030800    1.5112226130   -0.8134057615
C       -0.2453446768    1.0105861712   -1.8082728040
C       -1.8985419016    0.7465529525   -0.0697267904
C       -0.6118154341    0.4844182939   -0.5621959409
C        0.8655672834    0.3556981424    1.5090095577
C       -0.0262389135   -1.7824339272    0.5023623949
C        1.1012555489   -1.4679654730   -0.4374623125
C        0.3716852992   -0.3224463795    0.2411728464
C        2.4364725105    0.4249139013    3.3427134917
C        3.3003436811    0.1865292038    1.0644334235
N        2.1451771405    0.0544034808    1.9575203875
O        0.0758777640    0.9871529859    2.2081339579
H       -3.1321193288    2.6203808488   -2.6390734866
H       -0.8468077259    2.1736872499   -3.5236054841
H       -3.7939012692    1.7070059319   -0.4193152033
H        0.7524980074    0.8188496804   -2.1968360872
H       -2.1808175343    0.3596985511    0.9040506594
H       -0.9796553099   -2.1018163560    0.0936293186
H        0.2288930083   -2.2019070581    1.4706866917
H        2.0995553096   -1.7364234581   -0.1151617425
H        0.9239007925   -1.5877363842   -1.5018196827
H        3.3391111563   -0.1060127219    3.6600417983
H        2.5988081758    1.5053729105    3.4542687659
H        1.6020675663    0.1383742609    3.9827008170
H        3.8433355716    1.1138439183    1.2920807968
H        3.9916762622   -0.6552110490    1.1885126186
H        2.9839165576    0.2364830946    0.0246266699
29   
Generated by ForceBalance from scan.xyz: Frame 3 of 24
C       -2.2802850722    2.0917310149   -2.0306851192
C       -1.0036960538    1.7793048983   -2.5061926862
C       -2.7025274922    1.5804954172   -0.7974871066
C       -0.1580441351    0.9600465662   -1.7504171364
C       -1.8578798721    0.7601962204   -0.0467556349
C       -0.5762215444    0.4381500098   -0.5187014862
C        0.8085729255    0.2067822047    1.6034839561
C       -0.0797076772   -1.8838141437    0.4822637444
C        1.1095372959   -1.5481930190   -0.3761433350
C        0.3448474103   -0.4266031719    0.2986702929
C        2.5059023215    0.4934645323    3.3026312074
C        3.2045072498    0.3539096617    0.9545057813
N        2.1470874536    0.1128048781    1.9372528555
O       -0.0227230562    0.6450621115    2.3978176070
H       -2.9412195039    2.7272352902   -2.6148177168
H       -0.6653950710    2.1730266042   -3.4615516120
H       -3.6931569964    1.8224233515   -0.4203608941
H        0.8357289239    0.7226006816   -2.1235340764
H       -2.1763566886    0.3756127451    0.9166330756
H       -1.0056569139   -2.1822607746    0.0006437597
H        0.1056546755   -2.3419860098    1.4491284758
H        2.0853825526   -1.8242601090    0.0067534521
H        1.0039335484   -1.6401412482   -1.4529418628
H        3.4817922248    0.0593276528    3.5405358249
H        2.5621662405    1.5839487998    3.4208049248
H        1.7569515304    0.1137172480    3.9969238247
H        3.6474204876    1.3453796789    1.1188486150
H        3.9993500854   -0.3959918858    1.0432004081
H        2.8062346588    0.3298564450   -0.0573003227
29   
Generated by ForceBalance from scan.xyz: Frame 4 of 24
C       -2.1408688671    2.1574927297   -1.9770633439
C       -0.8903857747    1.7613578868   -2.4586888797
C       -2.5887911198    1.6727801235   -0.7418866856
C       -0.0958527299    0.8864844913   -1.7092040432
C       -1.7973364881    0.7963060841    0.0027974995
C       -0.5416399015    0.3901313617   -0.4766823929
C        0.7505152711    0.0429784753    1.6809702012
C       -0.1429400688   -1.9894615006    0.4392162750
C        1.1056826648   -1.6406133905   -0.3310127021
C        0.3135053679   -0.5399217009    0.3417929160
C        2.4988883873    0.5857797140    3.2697501754
C        3.0655359926    0.5037998301    0.8797969482
N        2.1002434144    0.1741139865    1.9256291334
O       -0.0888966189    0.2798632417    2.5507166600
H       -2.7611292094    2.8364794315   -2.5568294270
H       -0.5314420099    2.1334730629   -3.4151666497
H       -3.5593646358    1.9786924100   -0.3591457676
H        0.8774479315    0.5861648014   -2.0901534325
H       -2.1347240585    0.4293431869    0.9670259398
H       -1.0364386002   -2.2566079840   -0.1166093696
H       -0.0324115303   -2.4877854177    1.3974863834
H        2.0552515687   -1.9314711787    0.1064558494
H        1.0708154304   -1.6990581220   -1.4149253267
H        3.5271490809    0.2562824161    3.4480593554
H        2.4495301593    1.6764095210    3.3902971669
H        1.8336802639    0.1303045286    4.0022625856
H        3.3833224024    1.5503166486    0.9789667818
H        3.9540921272   -0.1338616141    0.9575486549
H        2.6263740800    0.3777016184   -0.1065335908
29   
Generated by ForceBalance from scan.xyz: Frame 5 of 24
C       -1.9954600976    2.2208579289   -1.9032496242
C       -0.7943805836    1.7292196076   -2.4208200792
C       -2.4457443689    1.7758400060   -0.6539259215
C       -0.0486896710    0.7967565672   -1.6907044809
C       -1.7028922792    0.8417442429    0.0698573225
C       -0.4962062248    0.3382510338   -0.4443371949
C        0.7109281165   -0.1314363006    1.7293854993
C       -0.2003374003   -2.0955429097    0.3758151394
C        1.0973805286   -1.7484408720   -0.3140188548
C        0.2924265334   -0.6597284214    0.3615232487
C        2.4334544923    0.6871276560    3.2318504128
C        2.9027018214    0.6460615576    0.8177846271
N        2.0255430322    0.2307746400    1.9061571714
O       -0.1010195771   -0.0997515790    2.6566365325
H       -2.5773870379    2.9451378374   -2.4675547799
H       -0.4356439545    2.0710627160   -3.3886416526
H       -3.3787272780    2.1561507104   -0.2452199339
H        0.8869792454    0.4236995300   -2.0996471218
H       -2.0422520976    0.4988659161    1.0428749589
H       -1.0642020567   -2.3210107511   -0.2418900717
H       -0.1590012311   -2.6277761556    1.3208638081
H        2.0196525407   -2.0654719134    0.1640189297
H        1.1223001403   -1.7725620508   -1.3996289099
H        3.4947144996    0.4605493949    3.3750318498
H        2.2850011559    1.7694949304    3.3470093453
H        1.8404136179    0.1761867939    3.9889437350
H        3.0273491674    1.7373858670    0.8227976055
H        3.8916119977    0.1865022105    0.9310509422
H        2.4906437620    0.3566537937   -0.1447228291
29   
Generated by ForceBalance from scan.xyz: Frame 6 of 24
C       -1.8479030071    2.2867544304   -1.8198083440
C       -0.7242859463    1.6878578103   -2.3949518014
C       -2.2627888243    1.8891093692   -0.5426827030
C       -0.0202771260    0.6995795771   -1.6975427390
C       -1.5636136707    0.8985058052    0.1486645680
C       -0.4340256043    0.2883999516   -0.4236551797
C        0.7116389494   -0.3092985219    1.7476531391
C       -0.2418197229   -2.1893641714    0.2958257019
C        1.0938389798   -1.8603344120   -0.3301006814
C        0.2934779605   -0.7742124416    0.3567736364
C        2.3356222065    0.7963680348    3.1817332021
C        2.7224710409    0.7893787655    0.7503590845
N        1.9468076119    0.2789684034    1.8733853668
O       -0.0296696420   -0.4860264998    2.7176518736
H       -2.3951650914    3.0556338897   -2.3591852677
H       -0.3913071136    1.9910874552   -3.3845599834
H       -3.1358210965    2.3498365675   -0.0870543897
H        0.8575722392    0.2493582832   -2.1534814411
H       -1.8848708519    0.5873980325    1.1389350891
H       -1.0827656759   -2.3652887687   -0.3677420733
H       -0.2595013522   -2.7509887969    1.2240857751
H        1.9884440149   -2.2157103491    0.1736026004
H        1.1633626826   -1.8503120007   -1.4139631560
H        3.4106470812    0.6460793591    3.3258025294
H        2.1177188339    1.8700989448    3.2640355824
H        1.7810867325    0.2675893940    3.9550430265
H        2.5662834175    1.8690922543    0.6210604579
H        3.7885781243    0.6143964737    0.9326929943
H        2.4441809577    0.2898565271   -0.1731817248
29   
Generated by ForceBalance from scan.xyz: Frame 7 of 24
C       -1.6943262742    2.3484461338   -1.7534093519
C       -0.6958199280    1.6214470335   -2.4067604232
C       -2.0198800657    2.0315049149   -0.4291012842
C       -0.0265560545    0.5884878831   -1.7412374289
C       -1.3566101589    0.9950423482    0.2299050064
C       -0.3510884656    0.2574137965   -0.4190514562
C        0.7649236548   -0.4569742168    1.7426399755
C       -0.2455217553   -2.2487959239    0.2175511048
C        1.1149730867   -1.9447194159   -0.3617476674
C        0.3269953649   -0.8525636371    0.3367216752
C        2.2424204894    0.8875148201    3.1429641393
C        2.5495031936    0.9438823149    0.6952379338
N        1.8742712408    0.3456906486    1.8395227696
O        0.1490966305   -0.8498552774    2.7372061862
H       -2.2123943778    3.1534505542   -2.2681998814
H       -0.4309403224    1.8612153912   -3.4336458915
H       -2.7957113550    2.5899553304    0.0888066852
H        0.7592536503    0.0458965055   -2.2594648731
H       -1.6190796173    0.7446384854    1.2546856627
H       -1.0709544452   -2.3775800741   -0.4754310375
H       -0.3080295395   -2.8284251353    1.1323591336
H        1.9856585383   -2.3347141441    0.1580718904
H        1.2187266092   -1.9076783912   -1.4419835226
H        3.3184655273    0.7625237736    3.3083396990
H        2.0029728129    1.9579868835    3.2008455990
H        1.6895916429    0.3560806050    3.9155443186
H        2.1451528777    1.9370923243    0.4591457423
H        3.6144824262    1.0486063586    0.9271355139
H        2.4538811479    0.3135974553   -0.1858438138
29   
Generated by ForceBalance from scan.xyz: Frame 8 of 24
C       -1.6141384535    2.3407080632   -1.7217803473
C       -0.7324867664    1.5069765126   -2.4148173652
C       -1.8463435225    2.1118975271   -0.3604664875
C       -0.0851278203    0.4579872045   -1.7532386817
C       -1.2054367045    1.0589889542    0.2944386813
C       -0.3137639767    0.2165570564   -0.3919086450
C        0.8078281142   -0.5619935730    1.7718171548
C       -0.2658632292   -2.2939022993    0.2250238355
C        1.1053918874   -2.0187917603   -0.3331915037
C        0.3336535546   -0.9083716066    0.3651330296
C        2.1157454747    0.9328298924    3.1936160516
C        2.3704658502    1.1024508168    0.7423180178
N        1.7435843024    0.4349635176    1.8753045330
O        0.3634488338   -1.1493693589    2.7626974360
H       -2.1135489033    3.1587621683   -2.2343027184
H       -0.5404588843    1.6761923997   -3.4715159726
H       -2.5317751397    2.7516495432    0.1899127828
H        0.6110217109   -0.1651463784   -2.3073032094
H       -1.3992179034    0.8810210404    1.3495061429
H       -1.0855458713   -2.3902347335   -0.4797518470
H       -0.3524554145   -2.8737954325    1.1373415044
H        1.9595587191   -2.4275155494    0.1992414642
H        1.2307837536   -1.9745351267   -1.4104751863
H        3.1830200230    0.7634644810    3.3834836744
H        1.9180202719    2.0102616281    3.2595862516
H        1.5314829058    0.4077651745    3.9473282662
H        1.8751373395    2.0519035452    0.5027141494
H        3.4175871688    1.3078829746    0.9896583162
H        2.3511869902    0.4694411454   -0.1424546389
29   
Generated by ForceBalance from scan.xyz: Frame 9 of 24
C       -1.5639256893    2.3533671571   -1.7304351642
C       -0.7003092593    1.5085234716   -2.4323963659
C       -1.7942397231    2.1195706624   -0.3694081765
C       -0.0684206705    0.4443035551   -1.7800173875
C       -1.1682245598    1.0519298124    0.2753938922
C       -0.2923410078    0.1995111910   -0.4187123808
C        0.9149687557   -0.6422941824    1.7070174891
C       -0.3353492653   -2.2997327874    0.2206912358
C        1.0178098923   -2.0968425896   -0.3994322983
C        0.3367448955   -0.9413508539    0.3291703671
C        2.1155619190    0.8924442679    3.1683274077
C        2.2607694002    1.2310521893    0.7251277029
N        1.6776951565    0.4895065477    1.8372545688
O        0.6837027642   -1.3801810625    2.6703230447
H       -2.0514391077    3.1830940655   -2.2355946670
H       -0.5104633698    1.6803531438   -3.4890577139
H       -2.4662153906    2.7673687883    0.1881454004
H        0.6153462300   -0.1867656401   -2.3404706638
H       -1.3574410832    0.8731917873    1.3311394253
H       -1.1914155461   -2.3509805529   -0.4443459052
H       -0.4030663896   -2.8713725586    1.1394773792
H        1.8722968444   -2.5458916717    0.0979524672
H        1.0956615553   -2.0567510658   -1.4809807083
H        3.1558096729    0.5933770447    3.3546962815
H        2.0437681474    1.9820165464    3.2584996924
H        1.4800248665    0.4182917856    3.9146397646
H        1.7241543147    2.1678641862    0.5326087287
H        3.3033333935    1.4667509959    0.9668189311
H        2.2560920206    0.6365540249   -0.1860157222
29   
Generated by ForceBalance from scan.xyz: Frame 10 of 24
C       -1.4988542912    2.3780292765   -1.7616772345
C       -0.6308353572    1.5355200660   -2.4609662776
C       -1.7400861673    2.1396747581   -0.4031326902
C       -0.0045458739    0.4682412789   -1.8080320390
C       -1.1184068422    1.0694978749    0.2413010871
C       -0.2362486269    0.2202195168   -0.4485264405
C        1.0810812737   -0.6580036801    1.6274844086
C       -0.3590173046   -2.2516911148    0.2576415331
C        0.9553461885   -2.1314291485   -0.4521573620
C        0.3898283708   -0.9236829780    0.2968237297
C        2.1731374350    0.8637912913    3.1666119112
C        2.1766585682    1.4297162314    0.7665059205
N        1.6664678145    0.5678998180    1.8300297946
O        1.0699137975   -1.5120210299    2.5204803964
H       -1.9827230559    3.2095264884   -2.2674293785
H       -0.4342190449    1.7106592376   -3.5158432830
H       -2.4164463731    2.7853469101    0.1516657266
H        0.6834797161   -0.1620613029   -2.3642022308
H       -1.3123286011    0.8877663432    1.2955225587
H       -1.2599332147   -2.2605423039   -0.3474355304
H       -0.3898911259   -2.8080192764    1.1873684745
H        1.8147516026   -2.6149495190    0.0011031859
H        0.9610726562   -2.1083568355   -1.5366479697
H        3.2114996201    0.5274294882    3.2906228954
H        2.1314650796    1.9457097019    3.3277387986
H        1.5590526254    0.3578563484    3.9104932289
H        1.6014741578    2.3594037014    0.6862691034
H        3.2219206181    1.6793473159    0.9839530262
H        2.1499919474    0.9250289185   -0.1958585520
29   
Generated by ForceBalance from scan.xyz: Frame 11 of 24
C       -1.4194096996    2.3444074179   -1.8091557199
C       -0.5219953167    1.5004624813   -2.4688896924
C       -1.7106899510    2.1163160439   -0.4585412422
C        0.0845021955    0.4418968475   -1.7837818203
C       -1.1076602204    1.0556820742    0.2185916096
C       -0.1948214974    0.2074067023   -0.4307388806
C        1.2242862591   -0.6526948653    1.6111205147
C       -0.4040685450   -2.2051342546    0.4299390243
C        0.8512624279   -2.1948328876   -0.3847740584
C        0.4234435883   -0.9204579775    0.3446972775
C        2.2189916169    0.8468347722    3.2219050020
C        2.0632485233    1.6093699760    0.8920776594
N        1.6525622918    0.6251593518    1.8931142019
O        1.4077818976   -1.5680302084    2.4212198195
H       -1.8891638638    3.1682924662   -2.3401124639
H       -0.2887457105    1.6669625632   -3.5176685997
H       -2.4115655567    2.7627849989    0.0639930624
H        0.7957498502   -0.1925011250   -2.3054024533
H       -1.3370758546    0.8811481382    1.2668831820
H       -1.3519824373   -2.1822371839   -0.0983551021
H       -0.3857783570   -2.7219288832    1.3823213083
H        1.7134523185   -2.7101054868    0.0248948250
H        0.7660816687   -2.2136334616   -1.4659438105
H        3.2771009202    0.5556192603    3.2679934824
H        2.1341351745    1.9110912759    3.4620471333
H        1.6718963873    0.2599728806    3.9587735392
H        1.4607025716    2.5223885240    0.9583297890
H        3.1161796867    1.8694725685    1.0581320367
H        1.9741562571    1.2139855378   -0.1151006595
29   
Generated by ForceBalance from scan.xyz: Frame 12 of 24
C       -1.3589131637    2.3213727823   -1.8968552928
C       -0.4156950135    1.4955153325   -2.5156821316
C       -1.7274989568    2.0739334219   -0.5688094786
C        0.1606515754    0.4361907955   -1.8068459311
C       -1.1519434875    1.0128593727    0.1319527033
C       -0.1911842310    0.1865565305   -0.4732597713
C        1.3488209857   -0.6770060716    1.4992643134
C       -0.4723126503   -2.1574148137    0.5459909483
C        0.6910427244   -2.2567934817   -0.3904845926
C        0.4221745160   -0.9317181815    0.3186542283
C        2.3177459248    0.7450137248    3.1871083334
C        1.8984166401    1.7388434639    0.9872131957
N        1.6609223359    0.6088885508    1.8871536950
O        1.7087854800   -1.6376125441    2.1896214626
H       -1.8073855276    3.1459175344   -2.4449269703
H       -0.1264463467    1.6762151913   -3.5480427986
H       -2.4662957038    2.7062474584   -0.0824473059
H        0.9056815089   -0.1907950266   -2.2895572587
H       -1.4377288125    0.8219434556    1.1635525831
H       -1.4686297489   -2.0941754475    0.1195320618
H       -0.3832965115   -2.6433237833    1.5106265586
H        1.5555119603   -2.8142566593   -0.0473373169
H        0.4892071129   -2.3004365452   -1.4556067664
H        3.3961813559    0.5473464246    3.1224257745
H        2.1661430486    1.7682522164    3.5438713439
H        1.8847460984    0.0413404820    3.8969865998
H        1.2306309009    2.5768656663    1.2167694163
H        2.9361629425    2.0757813132    1.1049563165
H        1.7555902067    1.4631901586   -0.0521438368
29   
Generated by ForceBalance from scan.xyz: Frame 13 of 24
C       -1.9688258254    2.1943486748   -1.1822395640
C       -2.5026342461    0.9085244594   -1.3047432933
C       -0.7232129553    2.3657079722   -0.5659552354
C       -1.8008868477   -0.1957698990   -0.8094233130
C       -0.0245708311    1.2602409470   -0.0787164493
C       -0.5562820069   -0.0357905107   -0.1855709913
C        0.6417410866   -1.2446596530    1.8217719664
C        0.0946966104   -2.5701661743   -0.2881219220
C        1.3150317060   -1.7525643303   -0.5750291234
C        0.2372205874   -1.1907346540    0.3553555585
C        0.6205909879   -0.3517234092    4.0674288705
C       -1.3587728524    0.0333184762    2.6608308318
N        0.0342701269   -0.4078215477    2.7302175254
O        1.5738704122   -1.9782651684    2.1695774920
H       -2.5142991804    3.0531450750   -1.5647267204
H       -3.4684571866    0.7631866155   -1.7823844597
H       -0.2955121169    3.3607142888   -0.4699941407
H       -2.2379989721   -1.1869312684   -0.8937484035
H        0.9429134448    1.3969065059    0.3982204248
H       -0.6442728493   -2.6888899606   -1.0733037424
H        0.2108647311   -3.4203580084    0.3755742051
H        2.2444325473   -2.0483640814   -0.1026450077
H        1.3881581465   -1.2717313112   -1.5453589428
H        0.3596542537    0.6091453339    4.5217898525
H        0.2478662316   -1.1608001907    4.7101675828
H        1.7038211119   -0.4427451976    3.9986366860
H       -1.8731443743   -0.2732160166    3.5797062631
H       -1.4330739547    1.1222651828    2.5623664440
H       -1.8789330150   -0.4221516979    1.8233376847
29   
Generated by ForceBalance from scan.xyz: Frame 14 of 24
C       -1.8994957696    2.2527808225   -1.1913942308
C       -2.4405710498    0.9742118724   -1.3490349426
C       -0.6679887791    2.4003482002   -0.5415354949
C       -1.7609396147   -0.1453624189   -0.8568465629
C        0.0094566100    1.2799144778   -0.0589406444
C       -0.5288844127   -0.0102085863   -0.2034687946
C        0.7574486910   -1.1481477009    1.7630536609
C        0.0061875397   -2.5900892545   -0.2058451222
C        1.2272458720   -1.8391749680   -0.6433341899
C        0.2539502008   -1.1777268219    0.3260976267
C        0.6166612719   -0.2888813121    4.0257665854
C       -1.4038489430   -0.1953674176    2.6132065793
N        0.0317968595   -0.4521516099    2.6984393512
O        1.8217627216   -1.6989389989    2.0647252764
H       -2.4284903623    3.1234612734   -1.5700996768
H       -3.3966072799    0.8456890828   -1.8505982431
H       -0.2340449698    3.3892754849   -0.4157144819
H       -2.2086536732   -1.1286411095   -0.9701311981
H        0.9668839563    1.4011466689    0.4418604455
H       -0.7976323180   -2.7367134642   -0.9193911355
H        0.1438892272   -3.4001718796    0.5031450053
H        2.1844206899   -2.1332709491   -0.2283591323
H        1.2352744343   -1.4301733715   -1.6485695296
H        0.2468786603    0.6446065748    4.4619132316
H        0.3494736820   -1.1205538244    4.6918234663
H        1.7021504419   -0.2514525594    3.9442610822
H       -1.8768999064   -0.5231469381    3.5462195087
H       -1.6192691367    0.8689609114    2.4636630535
H       -1.8559675217   -0.7557131916    1.7986485825
29   
Generated by ForceBalance from scan.xyz: Frame 15 of 24
C       -1.8404712929    2.2872696318   -1.2077069374
C       -2.3785359635    1.0094013756   -1.3805895607
C       -0.6215587468    2.4317902307   -0.5342972161
C       -1.7084842037   -0.1123775253   -0.8805127130
C        0.0473786562    1.3092765040   -0.0443838795
C       -0.4873026472    0.0195238955   -0.2063030772
C        0.8721437576   -1.0197918877    1.7320098256
C       -0.0306828255   -2.5820271265   -0.0864746763
C        1.1836088624   -1.8966643445   -0.6455959400
C        0.2900804907   -1.1488267302    0.3296131030
C        0.6248673414   -0.2182921960    4.0186885837
C       -1.3931983404   -0.3923715690    2.6037093179
N        0.0572000384   -0.5039982239    2.7064558007
O        2.0392487588   -1.3461408894    1.9713933340
H       -2.3627308700    3.1596313733   -1.5918028978
H       -3.3257118443    0.8831397276   -1.8992650167
H       -0.1901588501    3.4200646750   -0.3954802246
H       -2.1557148220   -1.0940532488   -1.0077493221
H        0.9968473710    1.4294041598    0.4717879449
H       -0.8789213719   -2.7566834770   -0.7402335684
H        0.1254780534   -3.3502241750    0.6649620507
H        2.1591630981   -2.1855953993   -0.2710069725
H        1.1418321745   -1.5608128427   -1.6767074424
H        0.2128955378    0.7251851768    4.3936943945
H        0.3890579579   -1.0139421588    4.7381288245
H        1.7074485038   -0.1391080177    3.9323993628
H       -1.8408135170   -0.7445877161    3.5399060990
H       -1.7121566392    0.6422309193    2.4290355098
H       -1.7766384653   -1.0131753443    1.7967205525
29   
Generated by ForceBalance from scan.xyz: Frame 16 of 24
C       -1.7988658096    2.3420930940   -1.2520224525
C       -2.3432138591    1.0691763205   -1.4416817700
C       -0.5841675974    2.4725051302   -0.5687168567
C       -1.6834436645   -0.0618197642   -0.9489808824
C        0.0759075090    1.3413738460   -0.0859481346
C       -0.4647052864    0.0564941216   -0.2674421081
C        0.9471478874   -0.9243959540    1.6276134537
C       -0.0783824593   -2.5572307336   -0.0804172189
C        1.1313027164   -1.9274171537   -0.7188309305
C        0.3006758366   -1.1232335238    0.2617377970
C        0.6635072691   -0.2673314149    3.9635123563
C       -1.3495806299   -0.5984165878    2.5715041613
N        0.1034964218   -0.6344631407    2.6688745180
O        2.1689434691   -1.0161981250    1.7800803013
H       -2.3136978054    3.2213921978   -1.6302791458
H       -3.2878161247    0.9539830497   -1.9675787140
H       -0.1482632085    3.4567976499   -0.4164958700
H       -2.1354614032   -1.0392015603   -1.0913231823
H        1.0245350070    1.4506753977    0.4341276402
H       -0.9572286881   -2.7370979695   -0.6915006848
H        0.0884730391   -3.3023473092    0.6922626626
H        2.1166994591   -2.2271772919   -0.3791821180
H        1.0564298119   -1.6351802297   -1.7613476578
H        0.3010075565    0.7240792816    4.2633359692
H        0.3678585187   -0.9921789080    4.7323467403
H        1.7493681171   -0.2516081904    3.8872420170
H       -1.7749202858   -0.9982007253    3.4984078852
H       -1.7234802755    0.4231732635    2.4273010317
H       -1.7004634679   -1.2147371067    1.7463413146
29   
Generated by ForceBalance from scan.xyz: Frame 17 of 24
C       -1.7661494099    2.3355107036   -1.3102584660
C       -2.3887374906    1.0845967341   -1.3049953562
C       -0.4907574480    2.4735793119   -0.7493481501
C       -1.7412441548   -0.0196528612   -0.7400590987
C        0.1553641076    1.3677578016   -0.1942956330
C       -0.4611917734    0.1043842538   -0.1840177721
C        0.9014461243   -0.7403706093    1.7804630921
C       -0.0918760494   -2.4958880489    0.1383494689
C        1.1456752801   -1.9008874098   -0.4889999136
C        0.2835439376   -1.0536268883    0.4221338011
C        0.5498395997   -0.2225390637    4.1386751662
C       -1.4087301564   -0.7467873991    2.7326547507
N        0.0420371594   -0.6775623002    2.8490293509
O        2.1161123160   -0.5604220496    1.9026765467
H       -2.2690259425    3.1952565321   -1.7453718835
H       -3.3809645749    0.9671327383   -1.7338200184
H        0.0022638351    3.4425939730   -0.7494220867
H       -2.2468986709   -0.9812332786   -0.7284848918
H        1.1499401821    1.4747805319    0.2312783901
H       -0.9464098971   -2.6993871284   -0.4999397273
H        0.0429501167   -3.2092931372    0.9465887484
H        2.1184846906   -2.1909741237   -0.1065637381
H        1.1106408311   -1.6656803832   -1.5480635506
H        0.1998964847    0.7954749216    4.3572299028
H        0.1982584967   -0.8893036395    4.9340811096
H        1.6380266939   -0.2276093678    4.1117180379
H       -1.8152536170   -1.2099052233    3.6377614410
H       -1.8547963948    0.2503504954    2.6211231995
H       -1.7018296018   -1.3538117228    1.8792625970
29   
Generated by ForceBalance from scan.xyz: Frame 18 of 24
C       -1.7095040442    2.3599177651   -1.4778337774
C       -2.3972280933    1.1577559359   -1.2938523915
C       -0.3855579600    2.4709628968   -1.0349671759
C       -1.7658934840    0.0753203554   -0.6706115550
C        0.2449041581    1.3883037866   -0.4197504990
C       -0.4384035332    0.1741815571   -0.2334468516
C        0.8607464122   -0.5897149335    1.7942585195
C       -0.0989222687   -2.4108085743    0.1718351757
C        1.1724549437   -1.8429787823   -0.4152794085
C        0.2768794931   -0.9685332582    0.4372713643
C        0.5747573593   -0.3418143847    4.1972845882
C       -1.3805553706   -0.9605170574    2.8354969298
N        0.0622448733   -0.7664597075    2.8982120138
O        2.0161633487   -0.1672027814    1.8844281001
H       -2.1985281624    3.2023455247   -1.9602993499
H       -3.4264436867    1.0613471997   -1.6308512496
H        0.1573497491    3.4026738814   -1.1735868903
H       -2.3162927730   -0.8505705607   -0.5256902422
H        1.2725726020    1.4719281832   -0.0769301012
H       -0.9259081196   -2.6181144049   -0.5011395621
H       -0.0055874741   -3.1117459137    0.9966497181
H        2.1240418217   -2.1402043690    0.0130998243
H        1.1892614464   -1.6333855259   -1.4802873065
H        0.2253653504    0.6687446503    4.4499722732
H        0.2251061807   -1.0353794260    4.9691594169
H        1.6629926721   -0.3378727569    4.1687518459
H       -1.6898868231   -1.6601589398    3.6198895568
H       -1.9133427071   -0.0119995277    2.9882525281
H       -1.6763944659   -1.3686538517    1.8733157906
29   
Generated by ForceBalance from scan.xyz: Frame 19 of 24
C       -1.6661892293    2.3730317872   -1.6540563913
C       -2.4007439611    1.2249961078   -1.3464654866
C       -0.3229500290    2.4609235465   -1.2672753815
C       -1.7927012521    0.1708583573   -0.6553065972
C        0.2826819242    1.4059977880   -0.5827618334
C       -0.4465517848    0.2457296583   -0.2729608739
C        0.7630911943   -0.4466520744    1.8388524346
C       -0.1425877957   -2.3183245428    0.2213907231
C        1.1649664223   -1.7755111648   -0.3042679642
C        0.2266467631   -0.8732896692    0.4767031843
C        0.6155023954   -0.4775260227    4.2620917841
C       -1.3521287441   -1.1652008478    2.9563903047
N        0.0703538916   -0.8442781646    2.9580852375
O        1.8229884067    0.1779529433    1.9197362554
H       -2.1350661238    3.1937894576   -2.1908727969
H       -3.4448275444    1.1490490322   -1.6403161994
H        0.2532382302    3.3525023931   -1.5022763413
H       -2.3738602720   -0.7162859278   -0.4163367518
H        1.3214790769    1.4712880484   -0.2727059482
H       -0.9329659067   -2.5296632102   -0.4930099217
H       -0.0987509741   -3.0068815482    1.0601893023
H        2.0860545174   -2.0792446497    0.1829685200
H        1.2485697895   -1.5864177651   -1.3700666961
H        0.2556900977    0.5091171805    4.5844098118
H        0.3045250384   -1.2235816970    5.0002040248
H        1.7024708374   -0.4450651414    4.2039045237
H       -1.5383265297   -2.0671431337    3.5512008158
H       -1.9305625024   -0.3394738084    3.3924329941
H       -1.7109343408   -1.3329762410    1.9449216092
29   
Generated by ForceBalance from scan.xyz: Frame 20 of 24
C       -1.6030597467    2.3845234161   -1.8280805976
C       -2.3838786827    1.2906402606   -1.4455021422
C       -0.2556491500    2.4376716203   -1.4501263025
C       -1.8181459186    0.2573440298   -0.6901093356
C        0.3080648727    1.4034671101   -0.7006177377
C       -0.4681464504    0.2982367593   -0.3159305596
C        0.6260103002   -0.3514695683    1.8821671173
C       -0.2169316184   -2.2482903799    0.2395253120
C        1.1276313498   -1.7260432808   -0.1991468262
C        0.1443551834   -0.8027819246    0.5082795674
C        0.6580671232   -0.6126861049    4.2898869807
C       -1.3254985678   -1.3706163629    3.0513413699
N        0.0716440781   -0.9474165929    2.9940772799
O        1.5632124699    0.4424386930    1.9756380956
H       -2.0389110963    3.1889342110   -2.4152603711
H       -3.4317185919    1.2412091332   -1.7314670699
H        0.3569423962    3.2872058725   -1.7419462245
H       -2.4337587321   -0.5884164654   -0.3930235521
H        1.3482254922    1.4464475381   -0.3934259383
H       -0.9613937661   -2.4509249164   -0.5247644153
H       -0.2308592131   -2.9386766709    1.0767013180
H        2.0065066146   -2.0416062106    0.3548026902
H        1.2925219135   -1.5418213152   -1.2562469201
H        0.2631056138    0.3348361594    4.6805357663
H        0.4239334421   -1.4128995419    4.9986641250
H        1.7382477482   -0.5161355545    4.1870188349
H       -1.4102597372   -2.3662957608    3.5025164101
H       -1.9067870190   -0.6659561309    3.6610042813
H       -1.7637016117   -1.3957754695    2.0568463389
29   
Generated by ForceBalance from scan.xyz: Frame 21 of 24
C       -1.5567105409    2.4033294670   -1.9729751764
C       -2.3831090159    1.3669862986   -1.5297500628
C       -0.2077602349    2.4192229596   -1.5981570858
C       -1.8599419955    0.3548770343   -0.7176637142
C        0.3125043290    1.4058771515   -0.7904343572
C       -0.5090256594    0.3593529509   -0.3443675473
C        0.4618498738   -0.2441994901    1.9290912316
C       -0.2896598849   -2.1712061030    0.2523091858
C        1.0815295501   -1.6512430165   -0.0840840504
C        0.0434512209   -0.7215269603    0.5449350391
C        0.7243220785   -0.6655459129    4.2962262142
C       -1.2626223335   -1.5478341259    3.1582999851
N        0.0889246123   -1.0027895524    3.0232873741
O        1.2409703209    0.7019707533    2.0382255580
H       -1.9585549656    3.1914810235   -2.6048423229
H       -3.4325886964    1.3464041814   -1.8131985369
H        0.4399686218    3.2241847124   -1.9366691309
H       -2.5084666921   -0.4474345896   -0.3728851710
H        1.3536607380    1.4243329243   -0.4853626526
H       -0.9769430290   -2.3649369930   -0.5657411833
H       -0.3608492836   -2.8713551063    1.0768109212
H        1.9119219886   -1.9700095679    0.5387659889
H        1.3303228840   -1.4650492156   -1.1242001767
H        0.2630135317    0.2158427309    4.7616677023
H        0.6229509903   -1.5191279194    4.9733966694
H        1.7799764927   -0.4511303406    4.1325325590
H       -1.2326529920   -2.5846844099    3.5133372225
H       -1.8340913022   -0.9526931755    3.8831689205
H       -1.7910601049   -1.5139201139    2.2082804394
29   
Generated by ForceBalance from scan.xyz: Frame 22 of 24
C       -1.4808616382    2.4223716685   -2.1023702349
C       -2.3530777396    1.4253567760   -1.6565077667
C       -0.1470576903    2.4131130290   -1.6771175440
C       -1.8915926593    0.4269688173   -0.7919233079
C        0.3113435634    1.4141686618   -0.8158891468
C       -0.5563614998    0.4075282831   -0.3670982766
C        0.2857210988   -0.1715775406    1.9694344637
C       -0.3881810428   -2.1116698804    0.2532198730
C        1.0030294548   -1.6011789246    0.0143201329
C       -0.0738924771   -0.6617083478    0.5754824799
C        0.8142892172   -0.6801677137    4.2705864879
C       -1.1607676304   -1.7185905319    3.2624582856
N        0.1232419524   -1.0481713804    3.0345943837
O        0.8858466902    0.8928474637    2.1042345043
H       -1.8355551645    3.1993641415   -2.7750154118
H       -3.3913280884    1.4248081517   -1.9792130778
H        0.5364766369    3.1874202250   -2.0166998601
H       -2.5751285052   -0.3449835517   -0.4450518537
H        1.3410299392    1.4154973406   -0.4738170846
H       -1.0204498400   -2.2859802868   -0.6119660273
H       -0.5190340898   -2.8260561898    1.0562291321
H        1.7822770632   -1.9267434373    0.6966790310
H        1.3264862184   -1.4082176167   -1.0035817780
H        0.2974580171    0.1275991535    4.8059948751
H        0.8615305572   -1.5624269913    4.9162200841
H        1.8247901697   -0.3434608660    4.0398427147
H       -1.0133138299   -2.7709779977    3.5321221223
H       -1.6973436361   -1.2253410994    4.0841299718
H       -1.7907063713   -1.6632585571    2.3770234698
29   
Generated by ForceBalance from scan.xyz: Frame 23 of 24
C       -1.3786285313    2.4439776956   -2.1977692802
C       -2.3030583526    1.4843197570   -1.7764672819
C       -0.0670195632    2.4023602106   -1.7095732606
C       -1.9127444460    0.4894598055   -0.8734104274
C        0.3160728077    1.4067252582   -0.8091817278
C       -0.6012242792    0.4352388219   -0.3843663857
C        0.0934302317   -0.1336939126    1.9980417299
C       -0.5020554828   -2.0810457354    0.2359291521
C        0.9050720451   -1.5878984235    0.0891872164
C       -0.1961991780   -0.6350599518    0.5937255607
C        0.8849185508   -0.6264967832    4.2250536434
C       -1.0092667795   -1.8962204550    3.3488576336
N        0.1616109892   -1.0691872480    3.0318508391
O        0.4844931936    1.0193664136    2.1614338972
H       -1.6760623121    3.2186558817   -2.9001529663
H       -3.3247298770    1.5099479896   -2.1475321792
H        0.6559548920    3.1489055482   -2.0290650438
H       -2.6358026806   -0.2538670829   -0.5447544416
H        1.3291054435    1.3846346532   -0.4198121958
H       -1.0826119923   -2.2279785452   -0.6693764506
H       -0.6958543457   -2.8086349104    1.0126480247
H        1.6335591753   -1.9264353716    0.8187383046
H        1.2913936605   -1.3882678502   -0.9051236663
H        0.3064576828    0.0956277979    4.8168846763
H        1.0984566470   -1.5044486076    4.8424744431
H        1.8226451772   -0.1535183700    3.9328860363
H       -0.7194711394   -2.9359271889    3.5414738229
H       -1.5085450144   -1.5064990362    4.2463176263
H       -1.7350444493   -1.8724084531    2.5384098181
29   
Generated by ForceBalance from scan.xyz: Frame 24 of 24
C       -1.0981941541    2.6425455650   -2.3246410641
C       -2.1333159238    1.9386274668   -1.7003774978
C        0.2309657894    2.3202101381   -2.0307461756
C       -1.8377317806    0.9188093478   -0.7918600289
C        0.5193918928    1.3007712114   -1.1197659116
C       -0.5104389747    0.5882976228   -0.4945588122
C       -0.0656111216    0.0411811521    1.9112320793
C       -0.7724167377   -1.8783205879    0.1392640720
C        0.7050323757   -1.6289380472   -0.0037616071
C       -0.1991668026   -0.5087090739    0.4947131943
C        0.2997225984   -0.0500693466    4.2938064148
C       -0.0273087347   -2.1899918759    3.1406713001
N        0.2182199739   -0.7559609522    3.0107700678
O       -0.1522390105    1.2628911818    2.0556436465
H       -1.3252093778    3.4349998650   -3.0334326232
H       -3.1691889291    2.1849599265   -1.9205125421
H        1.0414305862    2.8653529638   -2.5083595390
H       -2.6443594938    0.3765059747   -0.3036328883
H        1.5532783465    1.0605483171   -0.8834293620
H       -1.3590644025   -1.9057898749   -0.7732403064
H       -1.1392829754   -2.5344401703    0.9164912773
H        1.3945608760   -2.0831306769    0.6996576678
H        1.1026846284   -1.5143670515   -1.0069473861
H       -0.6906370944    0.0687330595    4.7547928940
H        0.9384896626   -0.6231024620    4.9716963919
H        0.7229452129    0.9402977917    4.1400737493
H        0.3567651484   -2.7570373377    2.2966744512
H        0.5006193335   -2.5477284134    4.0280487723
H       -1.0939384386   -2.4209977187    3.2722126635
