31   
Generated by ForceBalance from scan.xyz: Frame 1 of 11
C        1.9720067560    0.0531778170   -0.0906423209
C        0.7699585412    0.7746955485   -0.1445809673
C        8.2744573641    4.0375478381    1.8669136220
C        8.5170598933    4.8326058053    0.7118617912
C        3.1765879560    0.7240930455   -0.2911802528
C        0.7817184945    2.1452960095   -0.3880144632
C        7.2802962067    3.0176563169    1.8527490513
C        8.0297810432    4.3201227733   -0.5241480352
C        3.2136718017    2.1054095948   -0.5375574386
C        2.0005087955    2.8153960567   -0.5783324791
C        6.5403780490    3.1957511379    0.6557361620
C        4.2874945609    4.1634343950   -1.4560499998
C        3.1559674258    4.8977362067   -0.7568254899
C        4.5296899413    2.8135672634   -0.7688853649
N        7.3404622240    3.1614255162   -0.4377801098
N        5.2156269490    2.9860303975    0.5281326851
O        1.9214652830    4.1600584150   -0.8232194019
H        1.9643756268   -1.0167427752    0.0962393572
H       -0.1789322700    0.2658742996    0.0042410732
H        8.8389531506    4.2371671294    2.7751173102
H        9.1631492327    5.7032026251    0.7588182223
H        4.1163936342    0.1756900079   -0.2679748148
H       -0.1383177607    2.7208803560   -0.4327873407
H        6.9335760125    2.4826918563    2.7312394774
H        8.4724847110    4.5926656556   -1.4821051354
H        4.0209771948    3.9895179079   -2.5045031246
H        5.2006435563    4.7623515365   -1.4337944927
H        3.4060667209    5.0727854023    0.2983061080
H        2.9391947404    5.8591815729   -1.2256064499
H        5.1831017197    2.2034483655   -1.3967487001
H        4.6946275382    2.7621245331    1.3688757145
31   
Generated by ForceBalance from scan.xyz: Frame 2 of 11
C        1.9879096256    0.0593891907   -0.0375737525
C        0.7702576849    0.7533449710   -0.0986449482
C        8.3467317291    3.9700533703    1.8997521135
C        8.7157964538    4.7633728693    0.7878581596
C        3.1754013400    0.7549050748   -0.2576416760
C        0.7493475574    2.1189954152   -0.3686118709
C        7.2166182375    3.1365953936    1.8223556274
C        8.1331445675    4.4264672151   -0.4506521815
C        3.1802416639    2.1316719085   -0.5298132613
C        1.9512735006    2.8135353169   -0.5784278103
C        6.4845576862    3.3564646112    0.6258464246
C        4.2029427974    4.1902786022   -1.4992498563
C        3.0602664692    4.9159710164   -0.8100304801
C        4.4799868275    2.8649372106   -0.7780326497
N        7.2312363764    3.4237127418   -0.4996999149
N        5.1546601652    3.0906512516    0.5142232782
O        1.8405996977    4.1502528076   -0.8498340098
H        2.0055793113   -1.0068418947    0.1690280134
H       -0.1662731550    0.2264237679    0.0650113048
H        8.9324789093    4.0151230843    2.8148765690
H        9.5032996362    5.5065115400    0.8598275439
H        4.1275862887    0.2281527268   -0.2308450153
H       -0.1840053788    2.6722463703   -0.4196211629
H        6.8112486632    2.6000409571    2.6753895600
H        8.5778046979    4.7439736797   -1.3934517686
H        3.9341194050    3.9839932313   -2.5413404902
H        5.1032403325    4.8082477563   -1.4985010338
H        3.3139181295    5.1187168176    0.2388528762
H        2.8184210177    5.8609930569   -1.2996928810
H        5.1415411424    2.2528589502   -1.3972544345
H        4.6810769821    2.7514429842    1.3431828852
31   
Generated by ForceBalance from scan.xyz: Frame 3 of 11
C        2.0498775911    0.0376316974   -0.0477151916
C        0.8123839577    0.6946114518   -0.1175542893
C        8.3829018819    3.9170778894    1.8999684252
C        8.8723332494    4.6205712120    0.7799910227
C        3.2177089618    0.7660753715   -0.2675036673
C        0.7531725863    2.0574404406   -0.3961221057
C        7.1666910649    3.2331036309    1.8161046606
C        8.2367696216    4.3884985802   -0.4477405756
C        3.1840161193    2.1405928802   -0.5482663353
C        1.9354670313    2.7852163410   -0.6055661289
C        6.4664091164    3.4288983854    0.5995523021
C        4.1500933507    4.2211929903   -1.5269193151
C        2.9848809192    4.9167864252   -0.8448298211
C        4.4636053544    2.9095498374   -0.7955008354
N        7.1768648737    3.5654903040   -0.5380425034
N        5.1245506924    3.1664005737    0.4967708885
O        1.7871147888    4.1162473908   -0.8856547524
H        2.0979397905   -1.0264317785    0.1652735978
H       -0.1089969997    0.1414306073    0.0457060282
H        8.9491645427    3.9098545440    2.8283528603
H        9.7617338394    5.2392965018    0.8433415478
H        4.1846421316    0.2670683928   -0.2346080300
H       -0.1956240419    2.5831165908   -0.4540360198
H        6.7047426213    2.7655984690    2.6813720171
H        8.7031563997    4.6920061911   -1.3843755999
H        3.8910022059    4.0018326452   -2.5689236562
H        5.0324224161    4.8646271258   -1.5260597465
H        3.2296637158    5.1289875347    0.2041109668
H        2.7172559116    5.8526795486   -1.3387098579
H        5.1417665665    2.3119503042   -1.4122367583
H        4.6799736957    2.7634272134    1.3124379926
31   
Generated by ForceBalance from scan.xyz: Frame 4 of 11
C        2.0642669826    0.0535439916    0.0025660375
C        0.8137313323    0.6846649456   -0.0727196515
C        8.3870150371    3.8840749932    1.9682950609
C        8.9681734855    4.4719237470    0.8299855384
C        3.2177297585    0.8057298427   -0.2136927165
C        0.7280732926    2.0457015326   -0.3532894662
C        7.1055676923    3.3525222901    1.8832845592
C        8.2900857072    4.3250909251   -0.3806238078
C        3.1577933352    2.1788896419   -0.4963268137
C        1.8962051300    2.7971422020   -0.5590585139
C        6.4211603606    3.5067540701    0.6511627286
C        4.0842567255    4.2759832360   -1.4761349816
C        2.9032858793    4.9490781604   -0.7988682321
C        4.4226215853    2.9735565208   -0.7393647603
N        7.1078682629    3.6930112981   -0.4912437881
N        5.0713640911    3.2495429378    0.5546173854
O        1.7216136195    4.1242780063   -0.8413652463
H        2.1334115408   -1.0091185358    0.2168534325
H       -0.0967776678    0.1129003522    0.0876241493
H        8.9318167713    3.8450102422    2.9084410105
H        9.9384034068    4.9565709840    0.8703887844
H        4.1944480090    0.3263303641   -0.1769218949
H       -0.2309804634    2.5519528069   -0.4155042240
H        6.5982450515    2.9457674786    2.7546398325
H        8.7645420165    4.6100292812   -1.3191601016
H        3.8327389186    4.0487587492   -2.5184006885
H        4.9534128080    4.9371134844   -1.4741224739
H        3.1411129988    5.1672081372    0.2503226871
H        2.6177940094    5.8784057795   -1.2951896905
H        5.1144112378    2.3881883266   -1.3536462015
H        4.6452496830    2.8077451733    1.3595349361
31   
Generated by ForceBalance from scan.xyz: Frame 5 of 11
C        2.1115838415    0.0426839672   -0.0124319235
C        0.8488007759    0.6492687988   -0.0851965709
C        8.3904904706    3.8822288640    1.9802517517
C        9.0401074255    4.3288458116    0.8168541751
C        3.2498579357    0.8192498282   -0.2229315807
C        0.7360905464    2.0100170743   -0.3574844534
C        7.0679375137    3.4709380531    1.9070926663
C        8.3364786442    4.2450874856   -0.3821071068
C        3.1628029374    2.1925651314   -0.4975483077
C        1.8891535766    2.7859217657   -0.5575863858
C        6.4077463270    3.5539929124    0.6558654082
C        4.0476593893    4.3134664992   -1.4641488580
C        2.8534797665    4.9588486359   -0.7833608695
C        4.4118382916    3.0138607684   -0.7344878545
N        7.0772678726    3.7882208346   -0.4858386314
N        5.0548686651    3.2945491929    0.5603856157
O        1.6882404370    4.1110386910   -0.8315043504
H        2.2017748379   -1.0196718228    0.1955391620
H       -0.0502375190    0.0584503355    0.0707780323
H        8.9154509089    3.8568633096    2.9320691234
H       10.0630157530    4.6911283341    0.8368532768
H        4.2360068982    0.3594274061   -0.1877235934
H       -0.2328417747    2.4974086973   -0.4173542162
H        6.5264011562    3.1501377792    2.7938286226
H        8.8219075392    4.4983499256   -1.3240943437
H        3.8009864253    4.0877033559   -2.5079730652
H        4.9037433393    4.9914290689   -1.4575195878
H        3.0868145384    5.1747691664    0.2672963516
H        2.5496236661    5.8854847972   -1.2738097967
H        5.1149190889    2.4464111372   -1.3532411324
H        4.6358092500    2.8387539930    1.3605589095
31   
Generated by ForceBalance from scan.xyz: Frame 6 of 11
C        2.1491476137    0.0319314768   -0.0309379258
C        0.8761957717    0.6171700650   -0.1012762332
C        8.3808187555    3.8823902789    1.9936802531
C        9.0785438000    4.1754735157    0.8098898830
C        3.2740229092    0.8297389525   -0.2338403688
C        0.7407929349    1.9778242104   -0.3635738519
C        7.0276130832    3.5887797701    1.9313773450
C        8.3600539929    4.1527638106   -0.3820164165
C        3.1636696024    2.2032903638   -0.4987393369
C        1.8802373199    2.7754457862   -0.5562730267
C        6.3903292174    3.5923085816    0.6658534282
C        4.0129321381    4.3461381412   -1.4488585532
C        2.8075313488    4.9660694783   -0.7643887045
C        4.3987658522    3.0476909006   -0.7280309796
N        7.0501362640    3.8705550130   -0.4707596799
N        5.0369260405    3.3289365855    0.5682952508
O        1.6568367137    4.0989738417   -0.8202473322
H        2.2574151218   -1.0302040061    0.1694326380
H       -0.0128082901    0.0098816132    0.0489012624
H        8.8926419461    3.8837555979    2.9529850031
H       10.1377648830    4.4121659791    0.8149287435
H        4.2679757561    0.3869424511   -0.1999903184
H       -0.2363142713    2.4488720748   -0.4211438433
H        6.4590649705    3.3603656087    2.8296664840
H        8.8560141240    4.3719302229   -1.3270421718
H        3.7707247771    4.1238405040   -2.4945298474
H        4.8576403225    5.0381336065   -1.4364028908
H        3.0363507380    5.1776423012    0.2881813909
H        2.4883849382    5.8912934779   -1.2477342243
H        5.1118020935    2.4972959455   -1.3510706812
H        4.6200964397    2.8680514225    1.3662616224
31   
Generated by ForceBalance from scan.xyz: Frame 7 of 11
C        2.2026323110    0.0371183322   -0.0468978089
C        0.9206346803    0.6025634833   -0.1157318037
C        8.3911670287    3.8859104754    1.9897901513
C        9.1145451296    4.0165361668    0.7914101967
C        3.3154053126    0.8531637132   -0.2434468681
C        0.7639554038    1.9624350024   -0.3698542674
C        7.0155610241    3.7130025945    1.9426075393
C        8.3880393069    4.0538374937   -0.3962944904
C        3.1836324872    2.2262490413   -0.5009743001
C        1.8913562759    2.7784720542   -0.5562025192
C        6.3968637861    3.6340490897    0.6701243311
C        3.9999472246    4.3905277411   -1.4334968412
C        2.7843849563    4.9846066174   -0.7443059347
C        4.4055803820    3.0910501399   -0.7252218647
N        7.0502390249    3.9527903095   -0.4602360321
N        5.0455452913    3.3672240760    0.5704044286
O        1.6476575830    4.1002414905   -0.8113159621
H        2.3271407428   -1.0242944167    0.1477685761
H        0.0411663034   -0.0195851054    0.0296561692
H        8.9016964874    3.9180693819    2.9492780335
H       10.1947078102    4.1223054409    0.7854899602
H        4.3161362819    0.4259446957   -0.2099673475
H       -0.2202895058    2.4186328743   -0.4255564703
H        6.4303550809    3.5804115873    2.8491400812
H        8.8919169578    4.2354937394   -1.3449940464
H        3.7619001633    4.1751505272   -2.4816068741
H        4.8342829313    5.0948252646   -1.4130812825
H        3.0083347477    5.1887430588    0.3109315303
H        2.4515411113    5.9099795750   -1.2179770723
H        5.1253214652    2.5577773258   -1.3553227348
H        4.6225449258    2.9207229600    1.3729031642
31   
Generated by ForceBalance from scan.xyz: Frame 8 of 11
C        2.2491874249    0.0203741030   -0.0841335284
C        0.9586569368    0.5677717889   -0.1397540476
C        8.3840352309    3.9140900026    1.9807636193
C        9.1147050574    3.8716393708    0.7786982380
C        3.3501179903    0.8537625987   -0.2735337980
C        0.7819785745    1.9287385669   -0.3736729515
C        6.9968268936    3.8496163840    1.9388403018
C        8.3901729115    3.9473619271   -0.4109697116
C        3.1966332178    2.2280502328   -0.5119951361
C        1.8967532092    2.7634136083   -0.5534075809
C        6.3955069075    3.6630034961    0.6673032515
C        3.9774421682    4.4189926958   -1.4154655265
C        2.7569204848    4.9848811967   -0.7116245981
C        4.4048495674    3.1132436699   -0.7311575267
N        7.0474329156    4.0193063079   -0.4557057954
N        5.0556920063    3.3706548787    0.5610892889
O        1.6330146098    4.0855804248   -0.7872357522
H        2.3893758263   -1.0416617307    0.0957529377
H        0.0888077171   -0.0688980516    0.0006046429
H        8.8969478647    3.9941760626    2.9361402461
H       10.1998250418    3.8565864230    0.7705589454
H        4.3570681916    0.4410251078   -0.2482530018
H       -0.2087897117    2.3717760290   -0.4183607850
H        6.3980341774    3.8198931893    2.8455510811
H        8.9020718538    4.0832912315   -1.3630540266
H        3.7368056586    4.2174750297   -2.4657497731
H        4.8026857356    5.1337322679   -1.3876858930
H        2.9821140432    5.1771654756    0.3458768025
H        2.4089116547    5.9127432707   -1.1692009020
H        5.1280153836    2.6016454906   -1.3745373475
H        4.6096743569    2.9793125166    1.3792629139
31   
Generated by ForceBalance from scan.xyz: Frame 9 of 11
C        2.2530591273   -0.0043836441   -0.1964622689
C        0.9656626317    0.5515285951   -0.2446458562
C        8.3517847767    3.9983953972    1.9928801534
C        9.0999678643    3.7397873646    0.8249355282
C        3.3591907617    0.8288398119   -0.3499318117
C        0.7973894840    1.9203153179   -0.4337965870
C        6.9564012105    4.0230203843    1.9345584238
C        8.4105421460    3.7693777200   -0.3943741494
C        3.2152706042    2.2106852631   -0.5470803861
C        1.9185140576    2.7533135826   -0.5778148699
C        6.4144770033    3.6497079081    0.6777742779
C        4.0128275727    4.4385489187   -1.3511119358
C        2.7880059399    4.9736655019   -0.6306008736
C        4.4304480285    3.0942643293   -0.7361808610
N        7.0843636810    3.9930094072   -0.4427712067
N        5.1129966048    3.2547948713    0.5521372016
O        1.6627089803    4.0860382952   -0.7650128741
H        2.3864646331   -1.0721837922   -0.0481795603
H        0.0916076138   -0.0847670062   -0.1316283654
H        8.8605897693    4.1741431171    2.9377782818
H       10.1783883196    3.6222468604    0.8566033108
H        4.3641778698    0.4123294690   -0.3247728321
H       -0.1904919246    2.3705338442   -0.4696633098
H        6.3406765819    4.1145409326    2.8250430805
H        8.9498522241    3.8248739831   -1.3392803372
H        3.7769904021    4.2937527086   -2.4117291465
H        4.8419997925    5.1463040635   -1.2838504223
H        2.9999187749    5.1134838074    0.4390042814
H        2.4504600979    5.9266892754   -1.0419482324
H        5.1424750022    2.6108125402   -1.4104311852
H        4.5720218893    3.1208216115    1.3956963522
31   
Generated by ForceBalance from scan.xyz: Frame 10 of 11
C        2.3281289914   -0.0033697833   -0.2032176366
C        1.0290034835    0.5246583311   -0.2493857263
C        8.3440714557    3.9765002755    1.9774703445
C        9.0394131347    3.5532973040    0.8194361832
C        3.4158182095    0.8543612513   -0.3529134648
C        0.8309153817    1.8902460784   -0.4327083663
C        6.9522767838    4.1634168686    1.9271386055
C        8.3553089739    3.6644754390   -0.4065869354
C        3.2415418186    2.2336569690   -0.5438036322
C        1.9333569697    2.7483658041   -0.5726448847
C        6.4067843255    3.7170770774    0.6933986416
C        3.9911530225    4.4828934909   -1.3366187726
C        2.7540461858    4.9875433910   -0.6148741830
C        4.4363563849    3.1446159548   -0.7295749487
N        7.0802758998    4.1115303547   -0.4132515916
N        5.1156432359    3.3181767872    0.5617424150
O        1.6488215713    4.0758820709   -0.7542144723
H        2.4847353367   -1.0685943687   -0.0594524539
H        0.1690257591   -0.1310071592   -0.1393644781
H        8.8873285381    4.1465028424    2.9040337863
H       10.0896980904    3.2830995965    0.8580583147
H        4.4294919697    0.4592668921   -0.3296869126
H       -0.1665785060    2.3188059881   -0.4669998296
H        6.3437387810    4.3609817519    2.8048159246
H        8.8892549117    3.6742058504   -1.3561963584
H        3.7592305023    4.3374302903   -2.3979081968
H        4.8054936599    5.2071473586   -1.2652281386
H        2.9610912274    5.1280091181    0.4556235243
H        2.3963997460    5.9346076313   -1.0227873471
H        5.1616606583    2.6806560671   -1.4026871402
H        4.5758079020    3.1720781984    1.4053918856
31   
Generated by ForceBalance from scan.xyz: Frame 11 of 11
C        2.4485581247   -0.0008268444   -0.2004880147
C        1.1328603065    0.4829721695   -0.2604431920
C        8.3042720589    3.8878767066    1.9550624979
C        8.8990469775    3.3142061393    0.7965772820
C        3.5081226541    0.8921963062   -0.3439636265
C        0.8897102167    1.8402336607   -0.4510406980
C        6.9470789321    4.3171305367    1.9347577594
C        8.2370630185    3.5497378425   -0.4410613406
C        3.2881048648    2.2640961349   -0.5414935735
C        1.9636966927    2.7345312970   -0.5842552239
C        6.3873845644    3.8336655710    0.7240591464
C        3.9693778864    4.5369379622   -1.3326033088
C        2.7075476145    5.0007685773   -0.6259073223
C        4.4516443508    3.2147644146   -0.7207424713
N        7.0862701259    4.2560809896   -0.3606459844
N        5.1141185447    3.4190530685    0.5794049409
O        1.6364096137    4.0510446986   -0.7739098899
H        2.6396102308   -1.0595551524   -0.0508981806
H        0.2947324381   -0.2011298587   -0.1554604337
H        8.8902781601    3.9683088166    2.8679219805
H        9.8787339533    2.8499274966    0.8435769681
H        4.5342225010    0.5314077615   -0.3101356217
H       -0.1214373795    2.2343379139   -0.4961882328
H        6.3793081221    4.6060669837    2.8134965759
H        8.7620133919    3.5197330832   -1.3955860559
H        3.7538210804    4.3815151160   -2.3957938966
H        4.7592074314    5.2871785217   -1.2538425568
H        2.8965990982    5.1532557400    0.4463398018
H        2.3226357743    5.9333765910   -1.0420111304
H        5.2010607965    2.7747448013   -1.3818791121
H        4.5657835910    3.2771651305    1.4201444513
