70

C      2.90210   -6.98308   -5.57878
C      4.80718   -6.45304   -6.96518
C     -2.90973  -16.59902   -4.85694
C     -2.58293  -15.42099   -4.20625
C      3.21538   -5.92377   -4.72398
C      5.13605   -5.40549   -6.12237
C     -0.83478  -16.55099   -6.09216
C     -0.48991  -15.35674   -5.43904
C      3.68543   -7.27060   -6.70779
C     -2.04131  -17.18561   -5.81107
C     -1.35853  -14.78403   -4.49402
C      4.34139   -5.12814   -4.99154
C      0.76894  -14.67060   -5.72580
C      3.39425   -8.39151   -7.65253
C      4.30330  -10.79418   -6.12106
C      4.51786    0.22607   -1.28547
C      4.54294   -1.00473   -0.36849
C      5.20232   -0.06683   -2.62771
C      2.09217  -10.52611   -8.29762
C      3.93243   -2.23365   -1.05750
C      4.59009   -1.29505   -3.31498
C      1.63808  -11.79546   -7.53048
C      2.40887   -9.47371   -7.21910
C      2.85442  -10.32458   -5.98401
C      4.62163   -2.53041   -2.40043
C      1.81918  -11.46729   -6.02829
C     -2.43427  -18.47098   -6.49764
C      2.12512  -12.66478   -5.12451
C      3.97995   -3.74351   -3.05932
N     -1.06053  -13.59974   -3.82183
N      0.03607  -13.00089   -4.05418
N      0.93172  -13.50792   -4.95557
O      1.61363  -15.03442   -6.53927
O      3.96452   -8.45613   -8.73519
O      4.64039  -11.87348   -6.55166
O      5.25132   -9.90278   -5.71441
O      4.74298   -4.08178   -4.22926
H      2.01732   -7.57156   -5.35717
H      5.41339   -6.67364   -7.83813
H     -3.85483  -17.08917   -4.63293
H     -3.24571  -14.96880   -3.47449
H      2.58161   -5.72658   -3.86767
H      6.00423   -4.78047   -6.30963
H     -0.13673  -16.96017   -6.81664
H      5.00011    1.07642   -0.78947
H      3.47458    0.51910   -1.46821
H      5.58204   -1.22818   -0.09075
H      4.00711   -0.79641    0.56472
H      5.13204    0.80442   -3.28902
H      6.27307   -0.24460   -2.45744
H      2.99328  -10.72313   -8.88055
H      1.33733  -10.15206   -8.99393
H      4.00011   -3.10724   -0.39698
H      2.86196   -2.05340   -1.23337
H      3.54457   -1.07862   -3.57984
H      5.11417   -1.51242   -4.25080
H      0.59883  -12.05974   -7.74552
H      2.25337  -12.65365   -7.80276
H      1.47959   -8.97665   -6.91428
H      2.76666   -9.75401   -5.05377
H      5.67159   -2.78503   -2.19888
H      0.88982  -11.02228   -5.65002
H     -3.37097  -18.34823   -7.05283
H     -1.66530  -18.80049   -7.20034
H     -2.59276  -19.27263   -5.76768
H      2.41621  -12.33189   -4.12512
H      2.91328  -13.28559   -5.54395
H      2.94455   -3.51986   -3.35039
H      3.97209   -4.60006   -2.37229
H      4.84191   -9.05337   -5.46717
