55

C     -1.69419   -5.53973    5.75236
C      3.89019   -6.57712   -1.47065
C     -0.57996   -6.36020    5.95465
C     -1.53247   -4.29941    5.12308
C      4.27532   -5.42706   -0.77347
C      2.96657   -7.45497   -0.89286
C      1.27890   -1.06924    1.63424
C     -0.08911   -2.74001    0.58763
C      0.68373   -5.93842    5.52616
C     -0.26839   -3.88050    4.70081
C      3.75008   -5.15872    0.49364
C      2.43537   -7.17768    0.37027
C      1.97392   -2.06967    2.30730
C      0.59640   -3.75037    1.27605
C      0.21800   -1.38686    0.76327
C      0.85784   -4.69763    4.89800
C      2.82441   -6.03228    1.07778
C      1.63213   -3.42566    2.15773
C      1.60688    1.00841   -0.95187
C     -2.41646    0.79834    0.09412
C     -1.08301    0.88496    0.88380
C     -2.00226   -0.61895   -0.38531
C     -0.52391   -0.29712    0.02277
C      2.21883   -4.27311    4.37177
C      2.25874   -5.78827    2.46466
C      0.28225    0.20313   -1.19750
N      2.36422   -4.40559    2.90955
O      1.76616    1.53756    0.19009
O      2.35677    1.07619   -1.95936
H     -2.67935   -5.86302    6.08083
H      4.29309   -6.77871   -2.46043
H     -0.69405   -7.32559    6.44298
H     -2.39369   -3.65646    4.95790
H      4.97316   -4.72552   -1.22379
H      2.65023   -8.34632   -1.43032
H      1.57946   -0.02713    1.70871
H     -0.88254   -3.02571   -0.09902
H      1.54752   -6.58321    5.68042
H     -0.15378   -2.92137    4.20434
H      4.03310   -4.25618    1.02478
H      1.70158   -7.85341    0.80769
H      2.81283   -1.80118    2.94630
H      0.31081   -4.78442    1.11401
H     -2.45660    1.52000   -0.72763
H     -3.34878    0.87220    0.66581
H     -0.49684    1.80224    0.83638
H     -1.21281    0.58890    1.93108
H     -2.44797   -1.39414    0.24838
H     -2.17949   -0.87558   -1.43642
H      2.41048   -3.23139    4.63401
H      3.00275   -4.87666    4.84417
H      1.22875   -6.18052    2.50932
H      2.83351   -6.39213    3.17913
H     -0.36438    0.86184   -1.79475
H      0.51874   -0.65080   -1.84278
