18   
Generated by ForceBalance from scan.xyz: Frame 1 of 24
C        0.2788137832    0.6435544598   -0.5409834786
C        0.2226992614   -0.6722197768   -0.3798769645
C        0.9846247370   -2.9887540503   -0.4792762545
C        2.0422583419   -1.4164624325    1.0935562140
C        2.4565050826   -1.2170045772   -1.3381560054
N        1.4266316428   -1.5562561101   -0.2847662836
H       -0.6509443161    1.2031434737   -0.5679190060
H        1.1961523258    1.2121579668   -0.6580703670
H       -0.7059252137   -1.2161595610   -0.2486513663
H        1.8569720478   -3.6381627794   -0.4106220635
H        0.2678771128   -3.2459456031    0.3005209518
H        0.5220185740   -3.0826095551   -1.4619345592
H        2.8791243930   -2.1114716295    1.1753852560
H        2.3837407633   -0.3904622349    1.2203690264
H        1.2820255395   -1.6473546345    1.8393871310
H        3.2760712211   -1.9316648733   -1.2603390194
H        1.9854971288   -1.2786505544   -2.3183394762
H        2.8335402502   -0.2111511852   -1.1655835538
18   
Generated by ForceBalance from scan.xyz: Frame 2 of 24
C        0.2416740511    0.6193544812   -0.6641792233
C        0.2288411860   -0.6531470365   -0.2884566687
C        0.9691276351   -2.9624274523   -0.5142415084
C        2.0430971933   -1.4701640288    1.1277563150
C        2.4609692780   -1.1655436592   -1.2873675972
N        1.4265618602   -1.5432367102   -0.2568170172
H       -0.6845670585    1.1825087775   -0.6067111144
H        1.1111244089    1.1440201414   -1.0456717176
H       -0.6539112845   -1.1460510540    0.1046873558
H        1.8348662237   -3.6232768717   -0.4742454164
H        0.2496046045   -3.2461076318    0.2534695546
H        0.5040749916   -3.0061603223   -1.4992240007
H        2.8779911605   -2.1705831929    1.1766379185
H        2.3842046557   -0.4506340361    1.3008724588
H        1.2838679116   -1.7364264003    1.8629581615
H        3.2639745418   -1.9015005408   -1.2502172498
H        1.9929058925   -1.1621104170   -2.2710237974
H        2.8643376001   -0.1819393871   -1.0545978699
18   
Generated by ForceBalance from scan.xyz: Frame 3 of 24
C        0.1832163283    0.5742404010   -0.7694786517
C        0.2436109712   -0.6231810183   -0.2010145140
C        0.9456933650   -2.9266556639   -0.5453594972
C        2.0508492077   -1.5237235200    1.1587251342
C        2.4645839961   -1.1177987914   -1.2365923020
N        1.4273556839   -1.5272805049   -0.2237850427
H       -0.7299316140    1.1509124496   -0.6598633510
H        0.9788842778    1.0236325274   -1.3531312488
H       -0.5676535232   -1.0427033574    0.3851098635
H        1.7999818281   -3.6037114094   -0.5310084446
H        0.2177360363   -3.2306808470    0.2064866064
H        0.4828475748   -2.9167425647   -1.5320073679
H        2.8824314212   -2.2294463023    1.1696795426
H        2.3983667763   -0.5151241968    1.3785660566
H        1.2958592582   -1.8233832680    1.8854456228
H        3.2653394057   -1.8566780635   -1.2199742180
H        2.0046226598   -1.0856241207   -2.2236288743
H        2.8662500035   -0.1418180178   -0.9689376658
18   
Generated by ForceBalance from scan.xyz: Frame 4 of 24
C        0.1425713701    0.5116180552   -0.8799573312
C        0.2884473394   -0.5806807549   -0.1409165489
C        0.9282032820   -2.8857408889   -0.5811901566
C        2.0709066617   -1.5778857067    1.1798308138
C        2.4962628174   -1.0916880605   -1.1939046730
N        1.4469606175   -1.5136216898   -0.1998462606
H       -0.7533827543    1.1088487255   -0.7422143096
H        0.8551459891    0.8602966223   -1.6189035865
H       -0.4448565080   -0.9034985532    0.5912710366
H        1.7623864428   -3.5880680800   -0.5815616865
H        0.1804719052   -3.1951544803    0.1488743867
H        0.4787213754   -2.8225933772   -1.5716169648
H        2.8929537936   -2.2940285186    1.1595505392
H        2.4333818840   -0.5844949516    1.4421936800
H        1.3135752733   -1.8997863036    1.8944192847
H        3.3025555563   -1.8241914218   -1.1672432223
H        2.0572288756   -1.0643249052   -2.1903643477
H        2.8801575635   -0.1108150561   -0.9164148800
18   
Generated by ForceBalance from scan.xyz: Frame 5 of 24
C        0.0629749735    0.4308455468   -0.9538481731
C        0.3227793536   -0.5338926868   -0.0806746900
C        0.9057758982   -2.8385101483   -0.6141066964
C        2.0800578254   -1.6276299164    1.1989934824
C        2.5179316101   -1.0579563023   -1.1507321590
N        1.4565061080   -1.4960257661   -0.1741920930
H       -0.8130272994    1.0505548359   -0.7896009723
H        0.6709539801    0.6622774088   -1.8213184035
H       -0.3121249885   -0.7467777204    0.7733637793
H        1.7210458179   -3.5629620075   -0.6305476913
H        0.1392723113   -3.1532249237    0.0941060383
H        0.4707458578   -2.7243357231   -1.6059672462
H        2.8940774216   -2.3508375852    1.1471071643
H        2.4555186649   -0.6511721532    1.5043869003
H        1.3204246176   -1.9728604773    1.9001348566
H        3.3303736556   -1.7834029190   -1.1171748970
H        2.0982025216   -1.0315852481   -2.1549486584
H        2.8823003599   -0.0727686427   -0.8617872504
18   
Generated by ForceBalance from scan.xyz: Frame 6 of 24
C       -0.2498813800    0.1320455104   -0.9434905493
C        0.6441202506   -0.2412638066   -0.0367985929
C        0.8872349754   -2.6373147880    0.3897874389
C        2.8268643860   -1.1153580577    0.6031535686
C        1.9414473346   -1.6702524619   -1.6185357186
N        1.5663033663   -1.4068874827   -0.1795019450
H       -0.8975949911    0.9723619014   -0.7138598788
H       -0.3760827283   -0.3312185043   -1.9162276002
H        0.7346637159    0.2320210847    0.9351152914
H        1.5829862586   -3.4760793146    0.3396140562
H        0.6117134352   -2.4376528609    1.4253589297
H       -0.0063583210   -2.8411764912   -0.1979163467
H        3.5013938458   -1.9666603697    0.5131790215
H        3.2913311617   -0.2182332880    0.1937691601
H        2.5651201806   -0.9586457659    1.6495354046
H        2.6710088211   -2.4796615030   -1.6380121151
H        1.0568316795   -1.9708007616   -2.1763849043
H        2.3681597286   -0.7621674047   -2.0425731546
18   
Generated by ForceBalance from scan.xyz: Frame 7 of 24
C       -0.3257110259    0.0475707051   -0.8939721501
C        0.7026930112   -0.1883693216   -0.0895507822
C        0.8536838042   -2.6033033439    0.3500723029
C        2.8267833319   -1.1486727344    0.6371616312
C        2.0056010393   -1.6542423547   -1.6210519975
N        1.5866019504   -1.3921763991   -0.1913707501
H       -0.9262536087    0.9353871402   -0.7224012190
H       -0.6136241452   -0.5845132664   -1.7283651984
H        0.9614134251    0.4502623633    0.7474857751
H        1.5273574366   -3.4609414709    0.3234990660
H        0.5441744530   -2.3944631434    1.3738893914
H       -0.0221559584   -2.7863820597   -0.2700337737
H        3.4755704103   -2.0210625117    0.5635048655
H        3.3374735652   -0.2661417721    0.2516077670
H        2.5328862950   -0.9907926918    1.6748699334
H        2.6984879085   -2.4959052789   -1.6276947194
H        1.1286804327   -1.9000048643   -2.2162414205
H        2.4861423919   -0.7588319121   -2.0131065419
18   
Generated by ForceBalance from scan.xyz: Frame 8 of 24
C       -0.4033325392   -0.0204557232   -0.8039257354
C        0.7423114771   -0.1476143581   -0.1470306547
C        0.8260652470   -2.5803999442    0.3028698098
C        2.8032651026   -1.1682109759    0.6805151872
C        2.0652677728   -1.6308597164   -1.6202565334
N        1.5955035489   -1.3782195727   -0.2029551384
H       -0.9596794761    0.9068111483   -0.7096085872
H       -0.8345191618   -0.7877862444   -1.4404128988
H        1.1585744881    0.6291888653    0.4838673095
H        1.4902225677   -3.4454397281    0.2975660433
H        0.4789976957   -2.3700920925    1.3138435872
H       -0.0250499903   -2.7591674180   -0.3513665534
H        3.4291019862   -2.0591844598    0.6376307625
H        3.3594784700   -0.3039220941    0.3173071924
H        2.4662032407   -0.9973416329    1.7029816361
H        2.7244293874   -2.4997310540   -1.6186708227
H        1.1997996042   -1.8187959543   -2.2528541082
H        2.5969089860   -0.7475646225   -1.9724064752
18   
Generated by ForceBalance from scan.xyz: Frame 9 of 24
C       -0.4614798044   -0.0570742319   -0.6819939776
C        0.7776926535   -0.1294548820   -0.2133560647
C        0.8133073557   -2.5774980963    0.2413647842
C        2.7708085076   -1.1807583658    0.7204207052
C        2.1356106628   -1.6186512802   -1.6217704770
N        1.6054560824   -1.3762740005   -0.2234331241
H       -0.9702722820    0.9015360844   -0.6587625623
H       -1.0181964985   -0.8970212838   -1.0857599710
H        1.3196286931    0.7279179262    0.1696001225
H        1.4818815422   -3.4379115609    0.2752489241
H        0.4089326924   -2.3662445047    1.2303448119
H        0.0052642951   -2.7729730797   -0.4605398591
H        3.3766865069   -2.0864811875    0.7231468558
H        3.3672069360   -0.3362473792    0.3751840112
H        2.3826031438   -0.9841620881    1.7198599270
H        2.7890810053   -2.4919661806   -1.6021683745
H        1.2924285931   -1.7871660713   -2.2897149640
H        2.6896419635   -0.7364930808   -1.9418426457
18   
Generated by ForceBalance from scan.xyz: Frame 10 of 24
C       -0.5044056214   -0.0778765608   -0.5508110258
C        0.7962782599   -0.1263005426   -0.2928833614
C        0.8035685410   -2.5779376995    0.1797312215
C        2.7314531432   -1.1743029144    0.7436849349
C        2.1997362629   -1.6225922307   -1.6264929108
N        1.6095080119   -1.3774263787   -0.2527326015
H       -0.9861326374    0.8939621645   -0.5940162588
H       -1.1369811295   -0.9451308816   -0.7072119076
H        1.4072313578    0.7599329283   -0.1583282661
H        1.4784255719   -3.4295680483    0.2636640172
H        0.3404458377   -2.3618508010    1.1415547270
H        0.0432485620   -2.7954611813   -0.5681052340
H        3.3402201155   -2.0776910495    0.7764622958
H        3.3399412710   -0.3286060580    0.4237236764
H        2.2957166462   -0.9742233979    1.7225216026
H        2.8489707075   -2.4979415679   -1.5778650159
H        1.3838874129   -1.7862107481   -2.3290521354
H        2.7728114002   -0.7439850946   -1.9225230761
18   
Generated by ForceBalance from scan.xyz: Frame 11 of 24
C       -0.5194100330   -0.0843231961   -0.4217665364
C        0.8056167100   -0.1375603708   -0.3759322039
C        0.7949877454   -2.5865362278    0.1199038775
C        2.6900611881   -1.1667855582    0.7621536778
C        2.2616899724   -1.6410817439   -1.6261496284
N        1.6128843305   -1.3859360000   -0.2802730311
H       -0.9921865123    0.8880329426   -0.5187436351
H       -1.1767371762   -0.9441468505   -0.3558505453
H        1.4373441855    0.7413484702   -0.4546449966
H        1.4682718665   -3.4372068717    0.2222650558
H        0.3033307812   -2.3806406539    1.0699293765
H        0.0591808432   -2.7986366031   -0.6542137779
H        3.3062680345   -2.0639196679    0.8244464522
H        3.3023001014   -0.3157393362    0.4643368046
H        2.2104972254   -0.9656954407    1.7198875818
H        2.9039840807   -2.5188155527   -1.5442466392
H        1.4760687287   -1.8052863618   -2.3624895918
H        2.8532891781   -0.7681263293   -1.9016295806
18   
Generated by ForceBalance from scan.xyz: Frame 12 of 24
C       -0.5156481243   -0.0810737212   -0.2969991995
C        0.7989087247   -0.1615151817   -0.4583411763
C        0.7909816744   -2.6055244109    0.0630315954
C        2.6440664779   -1.1535726753    0.7773802010
C        2.3182963800   -1.6638194159   -1.6204452802
N        1.6126433962   -1.3986557270   -0.3054449015
H       -0.9918206658    0.8841888421   -0.4381126023
H       -1.1602448194   -0.9117039982   -0.0325450628
H        1.4169880058    0.6903112377   -0.7237022535
H        1.4632189247   -3.4582651953    0.1540988242
H        0.2944238326   -2.4249192113    1.0155402522
H        0.0595321744   -2.7953508955   -0.7214315603
H        3.2765657529   -2.0374792703    0.8654981782
H        3.2476761336   -0.2894713974    0.5001968121
H        2.1228795373   -0.9594606561    1.7142500634
H        2.9539583395   -2.5423944309   -1.5059645462
H        1.5650346009   -1.8320884731   -2.3893814673
H        2.9250761552   -0.7953024576   -1.8760137783
18   
Generated by ForceBalance from scan.xyz: Frame 13 of 24
C       -0.4872395005   -0.0338709582   -0.1849235750
C        0.7830240642   -0.1729275981   -0.5423091252
C        0.7792428087   -2.6111127105    0.0041980617
C        2.5895827104   -1.1271631023    0.7879417695
C        2.3674076728   -1.6724217860   -1.6132634170
N        1.6057204804   -1.3971138692   -0.3329805103
H       -0.9717863526    0.9201132187   -0.3680296016
H       -1.0918072311   -0.8111018201    0.2690911983
H        1.3651576746    0.6282554765   -0.9861335688
H        1.4492467309   -3.4669104340    0.0825213431
H        0.2782611637   -2.4553477408    0.9583547344
H        0.0507654048   -2.7761811094   -0.7887321060
H        3.2364613542   -1.9977751094    0.9030643370
H        3.1835057969   -0.2504317611    0.5300040825
H        2.0282141378   -0.9400678590    1.7023965674
H        2.9950069592   -2.5516205949   -1.4664136456
H        1.6489362493   -1.8455862014   -2.4141883378
H        2.9882811513   -0.8080145697   -1.8480481603
18   
Generated by ForceBalance from scan.xyz: Frame 14 of 24
C       -0.4472415723   -0.0066932582   -0.0728201740
C        0.7458892693   -0.2167349128   -0.6140926520
C        0.7822527199   -2.6492535397   -0.0524001067
C        2.5301608218   -1.1172313602    0.7974734009
C        2.4148351085   -1.6838315777   -1.6040071270
N        1.5969150810   -1.4161255478   -0.3581735160
H       -0.9603940608    0.9226458810   -0.2995374076
H       -0.9655092339   -0.7069321158    0.5735594983
H        1.2476295796    0.5106866984   -1.2432972921
H        1.4642832425   -3.4941610651    0.0409702857
H        0.2511999091   -2.5117397682    0.8876690540
H        0.0780269740   -2.8155029029   -0.8664712606
H        3.1979785868   -1.9683707491    0.9377783852
H        3.1048610088   -0.2220588726    0.5600269660
H        1.9307504978   -0.9461172940    1.6904397549
H        3.0490259877   -2.5525400928   -1.4281358125
H        1.7337004350   -1.8726028357   -2.4337343423
H        3.0321193647   -0.8110457749   -1.8162495228
18   
Generated by ForceBalance from scan.xyz: Frame 15 of 24
C       -0.3790533375    0.0388907418    0.0332088148
C        0.7028049374   -0.2659068387   -0.6718660696
C        0.7891585750   -2.6894195239   -0.1068346714
C        2.4716453181   -1.1179041135    0.8084261689
C        2.4617977787   -1.6832048204   -1.5918247104
N        1.5894302956   -1.4360968624   -0.3814199282
H       -0.9414523659    0.9271744772   -0.2369461298
H       -0.7562787601   -0.5448590493    0.8671533539
H        1.0698334949    0.3426070019   -1.4906838089
H        1.4838933991   -3.5194033054    0.0232413533
H        0.2078480624   -2.5566413998    0.8033086039
H        0.1271245611   -2.8717177090   -0.9522130532
H        3.1575698320   -1.9509465327    0.9685803973
H        3.0262667147   -0.2042109865    0.5959613388
H        1.8386308153   -0.9705679437    1.6819614080
H        3.1081546646   -2.5371401002   -1.3908033435
H        1.8208105470   -1.8894243512   -2.4490712412
H        3.0665276491   -0.7957905069   -1.7786193495
18   
Generated by ForceBalance from scan.xyz: Frame 16 of 24
C       -0.2920195910    0.1170576619    0.1104344879
C        0.6524565240   -0.3116933018   -0.7167958216
C        0.7922828942   -2.7194566741   -0.1579062422
C        2.4117124933   -1.1223457183    0.8224001724
C        2.4998435994   -1.6612005983   -1.5762931697
N        1.5770788970   -1.4472586870   -0.3992353810
H       -0.9182192731    0.9482173118   -0.1982495483
H       -0.4902024313   -0.3083573911    1.0900472519
H        0.8369005323    0.1262568802   -1.6909090131
H        1.4958785437   -3.5330307297    0.0222551261
H        0.1500401372   -2.5823186289    0.7098858760
H        0.1859764203   -2.9258201728   -1.0391657880
H        3.1086209754   -1.9431452308    0.9956688674
H        2.9513893916   -0.1943473019    0.6369685716
H        1.7529893653   -1.0026204275    1.6804236355
H        3.1736118010   -2.4869343053   -1.3491610984
H        1.9004356726   -1.8995100732   -2.4550564976
H        3.0718728290   -0.7489326244   -1.7460732759
18   
Generated by ForceBalance from scan.xyz: Frame 17 of 24
C       -0.2100385165    0.2070145822    0.1467546836
C        0.5961261298   -0.3685380031   -0.7359785461
C        0.8044100488   -2.7615902496   -0.2073694694
C        2.3450986924   -1.1456672049    0.8544228899
C        2.5313851945   -1.6163843971   -1.5480302124
N        1.5610907717   -1.4625060492   -0.3998481521
H       -0.8965708960    0.9734886515   -0.1989677421
H       -0.2321239197   -0.0274258045    1.2065465633
H        0.5884070884   -0.1284083287   -1.7931810305
H        1.5230493432   -3.5607009294   -0.0203442786
H        0.1290673022   -2.6492126925    0.6390576777
H        0.2322536739   -2.9686516268   -1.1114663525
H        3.0682518083   -1.9447347303    1.0190550829
H        2.8523400039   -0.1916961463    0.7164873008
H        1.6653504255   -1.0893891198    1.7019609647
H        3.2367501791   -2.4115797386   -1.3080407857
H        1.9745786515   -1.8735403892   -2.4491430505
H        3.0604520886   -0.6736664621   -1.6882587942
18   
Generated by ForceBalance from scan.xyz: Frame 18 of 24
C       -0.1146982416    0.3093093224    0.1463539960
C        0.5418964730   -0.4286401117   -0.7396856426
C        0.8242569380   -2.8066504860   -0.2422290731
C        2.2893511549   -1.1710736171    0.8796939809
C        2.5421121309   -1.5749396672   -1.5286972176
N        1.5439699802   -1.4811095894   -0.3967793118
H       -0.8532461061    1.0168183840   -0.2174907945
H        0.0413306499    0.2738617925    1.2192291844
H        0.3496206556   -0.3830597736   -1.8063710053
H        1.5638329299   -3.5870539070   -0.0575869091
H        0.1299906843   -2.7270008860    0.5927150337
H        0.2762370722   -3.0166098324   -1.1608052284
H        3.0472238013   -1.9402570621    1.0271817493
H        2.7545979746   -0.1906235733    0.7857680692
H        1.5963977364   -1.1840360458    1.7184926341
H        3.2754972175   -2.3444599863   -1.2882865819
H        2.0140495565   -1.8394944481   -2.4447760755
H        3.0310224601   -0.6074703406   -1.6432589791
18   
Generated by ForceBalance from scan.xyz: Frame 19 of 24
C       -0.0572597878    0.3935187930    0.0901711417
C        0.4603158267   -0.4979520433   -0.7453296964
C        0.8494430750   -2.8562025198   -0.2730023190
C        2.2160504035   -1.1761093183    0.8965403096
C        2.5275352254   -1.5252327275   -1.5156510254
N        1.5093122522   -1.4965848257   -0.3957596724
H       -0.8392756586    1.0504222453   -0.2777115551
H        0.2520753267    0.5299531809    1.1204027232
H        0.1216715244   -0.6164733241   -1.7695668085
H        1.6195356144   -3.6023477573   -0.0730265371
H        0.1287299995   -2.8171975128    0.5425551714
H        0.3398045916   -3.0854553949   -1.2088685391
H        2.9994344932   -1.9182381659    1.0482347176
H        2.6513367137   -0.1799033945    0.8263327724
H        1.5060347680   -1.2265055799    1.7203519716
H        3.2855621640   -2.2729523988   -1.2818589070
H        2.0224702389   -1.7862354395   -2.4455000531
H        2.9789531473   -0.5368276717   -1.5992592821
18   
Generated by ForceBalance from scan.xyz: Frame 20 of 24
C        0.0261182928    0.4812178737    0.0278587190
C        0.3989229813   -0.5483052669   -0.7216019871
C        0.8744801270   -2.8974453263   -0.3075187356
C        2.1667743885   -1.2011504608    0.9192391929
C        2.5082336108   -1.4751542896   -1.5015870406
N        1.4830738680   -1.5115655461   -0.3858424138
H       -0.7825859109    1.1109626024   -0.3296580301
H        0.4703219552    0.7479307601    0.9801801952
H       -0.0670883721   -0.7897190105   -1.6716523679
H        1.6683761061   -3.6179479746   -0.1082063881
H        0.1371647634   -2.9065907114    0.4945194573
H        0.3939161837   -3.1254904978   -1.2587700149
H        2.9426134144   -1.9488305391    1.0818397325
H        2.6158391131   -0.2103732262    0.8627525592
H        1.4374284623   -1.2465957000    1.7269751933
H        3.2844235974   -2.2107305554   -1.2883165121
H        2.0138624659   -1.7168606047   -2.4423150267
H        2.9319983619   -0.4725693276   -1.5493987858
18   
Generated by ForceBalance from scan.xyz: Frame 21 of 24
C        0.1058791894    0.5517863096   -0.0553105643
C        0.3443726010   -0.5949404505   -0.6788320657
C        0.9065210058   -2.9361454532   -0.3344227187
C        2.1264796237   -1.2316973301    0.9541445016
C        2.4902420902   -1.4243067036   -1.4757586944
N        1.4624534860   -1.5276225490   -0.3646951515
H       -0.7276906447    1.1580355477   -0.3958972055
H        0.6754370460    0.9301434142    0.7862163033
H       -0.2399784463   -0.9422806602   -1.5247711634
H        1.7227164297   -3.6313883401   -0.1372515643
H        0.1553159578   -2.9964603015    0.4529258646
H        0.4542714136   -3.1576852773   -1.3008305110
H        2.8945831931   -1.9856942843    1.1244640032
H        2.5885316431   -0.2466074201    0.9140626883
H        1.3792772494   -1.2726584716    1.7459642390
H        3.2834097366   -2.1487898795   -1.2869832295
H        2.0028994266   -1.6413009554   -2.4261444360
H        2.8881816120   -0.4104617652   -1.4849191505
18   
Generated by ForceBalance from scan.xyz: Frame 22 of 24
C        0.1869984357    0.6042625648   -0.1372726308
C        0.2961923475   -0.6315302619   -0.6079544423
C        0.9345175701   -2.9693480820   -0.3650302581
C        2.1035778592   -1.2814230345    0.9901250239
C        2.4654121105   -1.3717272271   -1.4514376031
N        1.4458295705   -1.5454169723   -0.3412854247
H       -0.6753679143    1.1943189339   -0.4314543914
H        0.8919814338    1.0726786309    0.5411773109
H       -0.4175366818   -1.0677697575   -1.2986476611
H        1.7707137097   -3.6458304695   -0.1890897220
H        0.1833972221   -3.0837535300    0.4167057733
H        0.4937555427   -3.1698673604   -1.3412954696
H        2.8786830330   -2.0322925684    1.1424960111
H        2.5580633883   -0.2926338967    0.9817304510
H        1.3500998107   -1.3475620789    1.7740706763
H        3.2751003242   -2.0865616965   -1.2982048141
H        1.9758289168   -1.5557042685   -2.4076421379
H        2.8413681380   -0.3502667861   -1.4188829410
18   
Generated by ForceBalance from scan.xyz: Frame 23 of 24
C        0.2519800801    0.6407390741   -0.2636091468
C        0.2566012982   -0.6564343264   -0.5423244555
C        0.9582679599   -2.9894758213   -0.3966988769
C        2.0696290591   -1.3242028250    1.0299168906
C        2.4553034063   -1.3200667670   -1.4146443073
N        1.4321383062   -1.5559637927   -0.3211102870
H       -0.6402063940    1.2167170013   -0.4884829394
H        1.0810905184    1.1779103987    0.1864426834
H       -0.5787224402   -1.1678137809   -1.0072561767
H        1.8099086859   -3.6501089132   -0.2363701841
H        0.2059107136   -3.1512426902    0.3754545899
H        0.5301522150   -3.1681411904   -1.3829854254
H        2.8745800379   -2.0480133375    1.1588887134
H        2.4770894382   -0.3162155902    1.0701621244
H        1.3103467010   -1.4535260689    1.8000958075
H        3.2776583923   -2.0246059020   -1.2826057239
H        1.9743518727   -1.4737837424   -2.3803481831
H        2.8146133881   -0.2949938304   -1.3405530237
18   
Generated by ForceBalance from scan.xyz: Frame 24 of 24
C        0.2766747492    0.6528075218   -0.4054163853
C        0.2224923850   -0.6713972770   -0.4663916889
C        0.9774880125   -2.9956456335   -0.4325380454
C        2.0414637297   -1.3592280240    1.0641752539
C        2.4463504406   -1.2635307399   -1.3771929270
N        1.4202643840   -1.5569103687   -0.3026679393
H       -0.6399400962    1.2196492451   -0.5348505236
H        1.1849166016    1.2230149961   -0.2327203286
H       -0.6935144149   -1.2242554346   -0.6395866324
H        1.8461593477   -3.6427138233   -0.3138434326
H        0.2436866065   -3.2099330551    0.3445803876
H        0.5359134444   -3.1407019447   -1.4185534754
H        2.8760947118   -2.0531365223    1.1705620246
H        2.3949435938   -0.3334118795    1.1489335605
H        1.2830213818   -1.5537325444    1.8216535524
H        3.2814535333   -1.9548365764   -1.2583778947
H        1.9761967319   -1.3945799158   -2.3511454286
H        2.7920091321   -0.2374006081   -1.2677902337
