15   
Generated by ForceBalance from scan.xyz: Frame 1 of 7
C        1.4277271344   -0.1225439415    1.6136002593
C        0.2229174676   -0.4020042150    0.9462926897
C        1.6544207191   -0.6846004231    2.8608188112
C       -0.6875061022   -1.2413047238    1.5946668672
C        0.6751597043   -1.5394715312    3.4342522384
C        0.9288364528   -2.1356953999    4.7312325845
N        1.9032200485   -1.6509233036    5.5948526448
N       -0.4899407480   -1.8033019534    2.7918762240
N        0.2810300082   -3.2333124548    5.2714116824
N        1.5715611472   -2.3182729269    6.7244314930
N        1.1109224538   -3.5076145913    6.3059841134
H        2.1728754924    0.5308800345    1.1620089738
H       -0.0037965698    0.0152416417   -0.0319308206
H        2.5607563754   -0.4875860903    3.4241673154
H       -1.6410064049   -1.4765732831    1.1162434396
15   
Generated by ForceBalance from scan.xyz: Frame 2 of 7
C        1.4215751343   -0.1045720534    1.6209484217
C        0.2270247119   -0.3991883901    0.9442744827
C        1.6473830566   -0.6712707931    2.8672951810
C       -0.6748574437   -1.2567085053    1.5799526191
C        0.6761618068   -1.5398825800    3.4286860531
C        0.9304068173   -2.1369055907    4.7326893718
N        1.9328584268   -1.6974116195    5.5530351944
N       -0.4775262291   -1.8193693969    2.7773583113
N        0.2509422846   -3.1778343160    5.2926134446
N        1.7029922778   -2.3722519972    6.6934432794
N        0.9967454145   -3.4683884254    6.3755224269
H        2.1604305247    0.5614658618    1.1777181381
H        0.0012691622    0.0195996895   -0.0336016494
H        2.5471573943   -0.4687359218    3.4387875764
H       -1.6196493504   -1.5066711669    1.0922048600
15   
Generated by ForceBalance from scan.xyz: Frame 3 of 7
C        1.4046477622   -0.0882502979    1.6302710123
C        0.2217754454   -0.3992622632    0.9418081051
C        1.6300446621   -0.6607326247    2.8746159902
C       -0.6693034876   -1.2781905197    1.5630388416
C        0.6685604702   -1.5469625131    3.4229122505
C        0.9217829044   -2.1466049765    4.7305232916
N        1.9765117192   -1.7723579208    5.5036091630
N       -0.4727262021   -1.8433910641    2.7594486808
N        0.1835904353   -3.1175931661    5.3220363896
N        1.8121958947   -2.4712509119    6.6331465819
N        0.8674288593   -3.4005468492    6.4396486197
H        2.1357716120    0.5930061763    1.1975366211
H       -0.0031117142    0.0221042419   -0.0352171262
H        2.5231202911   -0.4516135215    3.4539583983
H       -1.6037439091   -1.5443966397    1.0642030833
15   
Generated by ForceBalance from scan.xyz: Frame 4 of 7
C        1.4000233214   -0.0576562948    1.6466744251
C        0.2323254409   -0.4017825745    0.9486472257
C        1.6341535099   -0.6287112990    2.8902595630
C       -0.6348423648   -1.3118167441    1.5587552914
C        0.6949608409   -1.5435632812    3.4290188949
C        0.9551252042   -2.1367907910    4.7396228287
N        2.0659424099   -1.8409854519    5.4576542575
N       -0.4301307345   -1.8743450557    2.7550898340
N        0.1650557515   -3.0195965709    5.3884614543
N        1.9508262032   -2.5635822758    6.5765186156
N        0.8112225624   -3.2697910913    6.5343775417
H        2.1135482259    0.6465889671    1.2214818010
H        0.0014995236    0.0167166009   -0.0282305928
H        2.5189688976   -0.4002566979    3.4748852902
H       -1.5552127689   -1.6073163565    1.0504051423
15   
Generated by ForceBalance from scan.xyz: Frame 5 of 7
C        1.3730660026   -0.0389332929    1.6588622657
C        0.2257116015   -0.4053375803    0.9382906286
C        1.6018575888   -0.6166955732    2.9001443089
C       -0.6265344341   -1.3448007963    1.5244231555
C        0.6759475801   -1.5583791153    3.4162922727
C        0.9264641894   -2.1537819554    4.7263587374
N        2.0886072831   -1.9470627598    5.4022753129
N       -0.4280464016   -1.9129631126    2.7191142860
N        0.0747299632   -2.9476364736    5.4206027974
N        1.9694073116   -2.7162911902    6.4910318016
N        0.7048257903   -3.1467197879    6.5868378264
H        2.0758119843    0.6865604365    1.2517760253
H        0.0000607919    0.0172019303   -0.0380518375
H        2.4746037509   -0.3758675491    3.4978647220
H       -1.5288003065   -1.6611783200    0.9964997123
15   
Generated by ForceBalance from scan.xyz: Frame 6 of 7
C        1.3660907724   -0.0180348866    1.6711388810
C        0.2295823037   -0.4031358018    0.9419732877
C        1.6001765681   -0.5976649395    2.9099893877
C       -0.6065667179   -1.3631508184    1.5182077811
C        0.6875609620   -1.5576638215    3.4183694617
C        0.9390040174   -2.1502958538    4.7249169417
N        2.1413052635   -2.0223802365    5.3645500359
N       -0.4054286199   -1.9317845732    2.7121522799
N        0.0537488413   -2.8703705566    5.4709341607
N        2.0098091024   -2.8505462050    6.4160385940
N        0.6961773553   -2.9997185660    6.6473260013
H        2.0573354307    0.7222464294    1.2709748050
H        0.0012356177    0.0197068267   -0.0335537218
H        2.4683138314   -0.3458133383    3.5100948121
H       -1.4976942506   -1.6967786709    0.9819293263
15   
Generated by ForceBalance from scan.xyz: Frame 7 of 7
C        1.3530234237   -0.0060346393    1.6811574823
C        0.2261949994   -0.4070871347    0.9433385538
C        1.5913766721   -0.5862533168    2.9178399931
C       -0.5956878231   -1.3844337194    1.5116561200
C        0.6897348476   -1.5621403044    3.4210986233
C        0.9384514296   -2.1506594089    4.7225507268
N        2.1775624554   -2.0786557709    5.3467981214
N       -0.3939927451   -1.9528478921    2.7051419230
N        0.0199137507   -2.8261775248    5.5075189555
N        1.9930192264   -2.9754161864    6.3433261923
N        0.6981754536   -2.8640988566    6.6791942309
H        2.0347675081    0.7462436009    1.2868919517
H       -0.0039500258    0.0154987847   -0.0317861754
H        2.4554695203   -0.3233680259    3.5193835036
H       -1.4766712126   -1.7327756347    0.9676623757
