23   

C        5.7000040023    1.7602111565    0.0652226519
C        4.7727681067    2.0879640500   -0.9234350567
C        5.4856006823    0.6380481278    0.8651666689
C        3.6365486255    1.2927406435   -1.1114235844
C        4.3483118734   -0.1559179022    0.6749331438
C        3.3976863882    0.1482551491   -0.3220298855
C        1.3270255824   -0.6473560966   -1.5648455396
C        2.1983112263   -0.6870352723   -0.5130619146
C        0.1892132289   -1.5997404676   -1.3689845010
C        1.7411792988   -1.7138808513    0.5142638396
C        0.8295704328   -2.5754299010   -0.3729920540
H        6.5808484135    2.3748712089    0.2125597581
H        4.9310625611    2.9611689179   -1.5459938466
H        6.2016099428    0.3797359292    1.6370456327
H        2.9307851937    1.5781864734   -1.8808306009
H        4.2252210879   -1.0149433467    1.3201337203
H        1.4458910480   -0.0288864474   -2.4460908256
H       -0.1209081167   -2.0962874489   -2.2938260086
H       -0.6561098275   -1.0751766345   -0.9115323481
H        1.1673353955   -1.2168682466    1.3029589749
H        2.5466275947   -2.3177692489    0.9401962120
H        0.1018300749   -3.1675892553    0.1908368137
H        1.4692694186   -3.2584096051   -0.9424398094
23   

C        5.6766887259    1.7465984199    0.0665799036
C        4.6709808886    2.1522270790   -0.8120349101
C        5.5464500167    0.5399924627    0.7562733351
C        3.5390799002    1.3507647163   -0.9997260304
C        4.4132841206   -0.2600648564    0.5665035351
C        3.3879415249    0.1268787584   -0.3171525404
C        1.4071579584   -0.7590295508   -1.6285643158
C        2.1913202213   -0.7122278493   -0.5124870485
C        0.2402920947   -1.6766198655   -1.4355961245
C        1.6315449795   -1.6215807353    0.5725220574
C        0.7810503688   -2.5578781589   -0.2999661980
H        6.5544411443    2.3658299608    0.2132076653
H        4.7652631032    3.0897672677   -1.3479877596
H        6.3253041160    0.2204124644    1.4392220042
H        2.7649725782    1.6874531807   -1.6783269673
H        4.3485327270   -1.1933550538    1.1101167252
H        1.6157133259   -0.2263659873   -2.5489613366
H       -0.0032068725   -2.2577484262   -2.3306050556
H       -0.6296257035   -1.1015437281   -1.1016176041
H        1.0016021691   -1.0384021820    1.2517944631
H        2.3876804415   -2.1786474586    1.1316471553
H       -0.0007657791   -3.0847267056    0.2562322359
H        1.4530619640   -3.2993701078   -0.7454938919
23   

C        5.6713874455    1.7393838313    0.0768843845
C        4.6016247119    2.2067060528   -0.6903570954
C        5.6120876778    0.4647471225    0.6458424540
C        3.4763862531    1.3981967030   -0.8885834560
C        4.4852066994   -0.3415989680    0.4455145151
C        3.4032627972    0.1089207824   -0.3287415061
C        1.4996781465   -0.8735556567   -1.6799114077
C        2.2086362474   -0.7352390689   -0.5238182256
C        0.3045394196   -1.7528622668   -1.4790194610
C        1.5561086867   -1.5166423168    0.6072323220
C        0.7488555013   -2.5246001153   -0.2259551776
H        6.5438767705    2.3641031921    0.2314293104
H        4.6414002440    3.1965329275   -1.1305567912
H        6.4398138461    0.0987806849    1.2425588054
H        2.6478523687    1.7728015451   -1.4778267564
H        4.4580232116   -1.3292477869    0.8891617460
H        1.7819404801   -0.4277086937   -2.6267468696
H        0.1110436891   -2.4168451260   -2.3273691123
H       -0.5746450204   -1.1362652525   -1.2648268579
H        0.8933966367   -0.8566569171    1.1760435686
H        2.2678458300   -2.0142029763    1.2721776233
H       -0.0797731486   -2.9826094646    0.3233699883
H        1.4346826109   -3.3157509178   -0.5477947634
23   

C        5.6726520597    1.7300690513    0.0829604702
C        4.5442028177    2.2474947289   -0.5591750456
C        5.6769643641    0.4013057487    0.5167877643
C        3.4240556432    1.4345542003   -0.7686015091
C        4.5547445461   -0.4086393815    0.3051471003
C        3.4191384829    0.0935790363   -0.3472131755
C        1.5873640820   -0.9993638252   -1.7196673663
C        2.2247493325   -0.7562099141   -0.5408781989
C        0.3648663000   -1.8375405017   -1.5063028899
C        1.4884616942   -1.4034335867    0.6223556556
C        0.7137048716   -2.4807999785   -0.1533395534
H        6.5409873929    2.3582700888    0.2465127160
H        4.5346851748    3.2788822218   -0.8927438491
H        6.5489902028   -0.0025610143    1.0183626035
H        2.5478905467    1.8418761388   -1.2592787466
H        4.5644523052   -1.4373618063    0.6453917546
H        1.9361766184   -0.6503397077   -2.6848858484
H        0.2117981291   -2.5836159132   -2.2923857322
H       -0.5136748274   -1.1904455557   -1.4141517688
H        0.8067628192   -0.6779740775    1.0776167819
H        2.1545769316   -1.8352246578    1.3755143586
H       -0.1570134449   -2.8673581231    0.3857141117
H        1.4015716539   -3.3109237850   -0.3471253559
23   

C        5.6786810998    1.7211883347    0.0745161263
C        4.4947029301    2.2798189676   -0.4159896889
C        5.7375602863    0.3528944359    0.3556523108
C        3.3731114612    1.4688605389   -0.6258677611
C        4.6136024945   -0.4545407481    0.1436547084
C        3.4231676683    0.0917078029   -0.3552662704
C        1.6764440082   -1.1360911886   -1.7350642129
C        2.2263393877   -0.7610091579   -0.5477672208
C        0.4322625392   -1.9406554474   -1.5172723852
C        1.4050403639   -1.2720187919    0.6261761707
C        0.6766145168   -2.4280291513   -0.0784031867
H        6.5479968790    2.3478067251    0.2389209012
H        4.4436068727    3.3409774201   -0.6315075622
H        6.6526717596   -0.0832228422    0.7396931426
H        2.4539732097    1.9044743159   -0.9998460594
H        4.6608225528   -1.5140354881    0.3664950011
H        2.1005964338   -0.9014035854   -2.7047071191
H        0.3268323559   -2.7702285701   -2.2234209450
H       -0.4431103767   -1.2842847232   -1.5619864834
H        0.7003249338   -0.4992138894    0.9492062235
H        2.0164461269   -1.6168567086    1.4658749666
H       -0.2343423668   -2.7496900223    0.4362327140
H        1.3679404473   -3.2762239418   -0.1276870554
23   

C        5.6882159174    1.7088274967    0.0661810347
C        4.4587913606    2.3004169606   -0.2393962931
C        5.7850284471    0.3174739817    0.1655121996
C        3.3289180960    1.4996500358   -0.4439795983
C        4.6526506577   -0.4796638503   -0.0406414705
C        3.4149758020    0.1014554919   -0.3468766136
C        1.7771296999   -1.2719757202   -1.7288611481
C        2.2139742305   -0.7465139839   -0.5519983296
C        0.5176139131   -2.0564398945   -1.5272347528
C        1.2995216499   -1.1329829327    0.6001637133
C        0.6369838258   -2.3712019054   -0.0256486139
H        6.5640542709    2.3274097438    0.2263405479
H        4.3794686570    3.3787527348   -0.3169790625
H        6.7363351964   -0.1446850706    0.4032873118
H        2.3759573328    1.9590610983   -0.6789797943
H        4.7289410690   -1.5577902241    0.0387039437
H        2.2934122868   -1.1601435774   -2.6755129667
H        0.4725916883   -2.9632337150   -2.1384895320
H       -0.3497930791   -1.4173818947   -1.7230520286
H        0.5668831403   -0.3384855969    0.7737217276
H        1.8410236112   -1.3715092190    1.5209565007
H       -0.3146730698   -2.6417290179    0.4426717279
H        1.3312611607   -3.2113097863    0.0835371886
23   

C        5.6974964455    1.6997656183    0.0678970527
C        4.4409399598    2.3021643417   -0.0452180546
C        5.8121693126    0.3088708164   -0.0166976290
C        3.3015368006    1.5124576115   -0.2394701665
C        4.6702671875   -0.4774284273   -0.2115856311
C        3.4037715480    0.1132658971   -0.3173723764
C        1.8794542031   -1.3990619830   -1.6766119658
C        2.1991330858   -0.7226865353   -0.5393253872
C        0.6037193405   -2.1632798989   -1.5022775734
C        1.1828758464   -0.9847798282    0.5616839568
C        0.5829167009   -2.2967019731    0.0303520891
H        6.5809261213    2.3097708111    0.2190114425
H        4.3483041504    3.3804796973    0.0162051686
H        6.7851654964   -0.1614422179    0.0681264314
H        2.3288073645    1.9812219212   -0.3311433151
H        4.7618701533   -1.5551964450   -0.2786488694
H        2.4917021809   -1.4110395798   -2.5711524891
H        0.6128853318   -3.1364654653   -2.0030357305
H       -0.2394698044   -1.5585140068   -1.8521966222
H        0.4349061649   -0.1857350268    0.5724783928
H        1.6378414517   -1.1053822851    1.5498680200
H       -0.4080605397   -2.5208100929    0.4376514375
H        1.2647476957   -3.1095113058    0.3027059224
23   

C        5.6962327127    1.6879641036    0.0832878828
C        4.4270544767    2.2708860895    0.1408030543
C        5.8216203915    0.3187262883   -0.1691284022
C        3.2858875338    1.4831937795   -0.0508619532
C        4.6781502859   -0.4661202675   -0.3605632456
C        3.3980327187    0.1026655345   -0.2941189738
C        1.9617452113   -1.5216557121   -1.6081928656
C        2.1942385425   -0.7234049831   -0.5290747895
C        0.6626674300   -2.2520471296   -1.4648062469
C        1.0815261581   -0.8594184213    0.4997002853
C        0.5097504204   -2.2183639947    0.0652084037
H        6.5810677199    2.2967262455    0.2311648259
H        4.3258543299    3.3332849333    0.3310319290
H        6.8044847145   -0.1359097526   -0.2180370913
H        2.3041400135    1.9403614700   -0.0135773555
H        4.7809035962   -1.5265815124   -0.5585636376
H        2.6491010804   -1.6413065424   -2.4378490639
H        0.6978061016   -3.2738383322   -1.8555083080
H       -0.1370184105   -1.6820018022   -1.9492727620
H        0.3466364401   -0.0607923853    0.3576155775
H        1.4467034302   -0.8728041334    1.5314704374
H       -0.5155410183   -2.3910037951    0.4074305459
H        1.1539649334   -3.0002300449    0.4816898143
23   

C        5.6998642439    1.6832697603    0.0959291553
C        4.4271317971    2.2239246489    0.2976503108
C        5.8330821818    0.3509417721   -0.3044701775
C        3.2903226880    1.4312886120    0.1007393514
C        4.6942988519   -0.4394510284   -0.5007596963
C        3.4092259711    0.0860422064   -0.2939578817
C        2.0303974762   -1.6369332223   -1.5399147499
C        2.2093248496   -0.7377691223   -0.5305899238
C        0.7053151086   -2.3237811401   -1.4210440342
C        1.0170345369   -0.7455788117    0.4153739512
C        0.4445515204   -2.1319633364    0.0817971100
H        6.5811635848    2.2962713637    0.2473676563
H        4.3194025386    3.2582448720    0.6037538073
H        6.8187543195   -0.0711047190   -0.4639617943
H        2.3071776556    1.8613278617    0.2506039914
H        4.8084566232   -1.4714031193   -0.8105024092
H        2.7672513054   -1.8535607263   -2.3047151333
H        0.7411894135   -3.3804753354   -1.7039881717
H       -0.0422486837   -1.7905819289   -2.0177142787
H        0.3153245139    0.0458339276    0.1335465717
H        1.3009069659   -0.6568042040    1.4687825447
H       -0.6065254544   -2.2507051714    0.3633474598
H        1.0382029833   -2.8776958847    0.6216007899
23   

C        5.6957665288    1.6864314635    0.1002356117
C        4.4269911423    2.1640931793    0.4370853113
C        5.8339137538    0.4048955939   -0.4384822341
C        3.2988524127    1.3603006975    0.2353977367
C        4.7042806788   -0.3972691680   -0.6394915726
C        3.4209505649    0.0658961469   -0.3031922162
C        2.0803932401   -1.7493921231   -1.4652918055
C        2.2279696074   -0.7665864348   -0.5296377703
C        0.7308219276   -2.3906641915   -1.3693312763
C        0.9755226386   -0.6562886704    0.3280681760
C        0.3826400229   -2.0529660860    0.0884760517
H        6.5700282105    2.3085062344    0.2554381088
H        4.3151401197    3.1590580335    0.8526180005
H        6.8168949783    0.0306150182   -0.7007430286
H        2.3217757484    1.7500388081    0.4939964447
H        4.8304774547   -1.3902621436   -1.0529903657
H        2.8474259841   -2.0512713847   -2.1686096351
H        0.7531219161   -3.4698141637   -1.5507229915
H        0.0378651591   -1.8984517309   -2.0597646476
H        0.3183756827    0.1215125558   -0.0738069013
H        1.1898980952   -0.4765284917    1.3863272363
H       -0.6871874682   -2.1185326989    0.3105139039
H        0.9182955830   -2.7589580872    0.7323840929
23   

C        5.6947102392    1.6944870090    0.0996286632
C        4.4420016422    2.0987751692    0.5654490351
C        5.8244024252    0.4753481101   -0.5686759857
C        3.3210436618    1.2850893368    0.3627961628
C        4.7026071131   -0.3373340075   -0.7707952647
C        3.4325919138    0.0533148632   -0.3090337852
C        2.1246086225   -1.8513145767   -1.3733479855
C        2.2461631201   -0.7920407375   -0.5187855407
C        0.7528735940   -2.4478935976   -1.3107627686
C        0.9427880510   -0.5740788432    0.2370283480
C        0.3210448550   -1.9698221677    0.0825945899
H        6.5629337630    2.3246647627    0.2560637601
H        4.3365644833    3.0453532699    1.0831656594
H        6.7954046872    0.1569147495   -0.9304495642
H        2.3615435103    1.6294491015    0.7277218526
H        4.8315035913   -1.2808309801   -1.2853494521
H        2.9166706588   -2.2348103655   -2.0047712449
H        0.7540089511   -3.5393806195   -1.3922889383
H        0.1215463186   -2.0044921574   -2.0879109257
H        0.3394361614    0.1824514399   -0.2749114338
H        1.0873835366   -0.3116175769    1.2897345949
H       -0.7626259356   -1.9862946466    0.2359538560
H        0.7898098051   -2.6283934783    0.8218838918
23   

C        5.6966325949    1.7040460504    0.0909192174
C        4.4764698840    2.0273538000    0.6868259122
C        5.7967987039    0.5600859901   -0.7024796435
C        3.3582652788    1.2080694924    0.4905651557
C        4.6784587469   -0.2586393315   -0.8984138076
C        3.4395211056    0.0501590050   -0.3058373391
C        2.1688977853   -1.9405405392   -1.2601453915
C        2.2580617444   -0.8081433185   -0.4991277687
C        0.7812407313   -2.5016045035   -1.2473932167
C        0.9101780687   -0.4979625792    0.1382523226
C        0.2601897937   -1.8871802839    0.0578785715
H        6.5621828785    2.3389146204    0.2431765650
H        4.3939037642    2.9159592270    1.3022531350
H        6.7422755420    0.3049226598   -1.1673397687
H        2.4306475780    1.4995917525    0.9649254794
H        4.7885357948   -1.1392111635   -1.5174058572
H        2.9906268069   -2.3993086356   -1.7956771777
H        0.7592966842   -3.5957575062   -1.2278009420
H        0.2213518053   -2.1206792728   -2.1079128698
H        0.3672642968    0.2268512139   -0.4768344598
H        0.9769297743   -0.1591160813    1.1762647323
H       -0.8319634166   -1.8650190462    0.1275648077
H        0.6515390274   -2.4866162949    0.8870629559
23   

C        5.7164753079    1.7159928336    0.0826736486
C        4.5492212110    1.9500214101    0.8117170598
C        5.7607641701    0.6626704916   -0.8320885088
C        3.4279244986    1.1318844830    0.6278450680
C        4.6395812967   -0.1549100237   -1.0154468943
C        3.4543747442    0.0641956737   -0.2890751920
C        2.2240235603   -1.9976766953   -1.1291210902
C        2.2742189628   -0.7995502354   -0.4736592417
C        0.8304801310   -2.5419233672   -1.1694241508
C        0.8901452267   -0.4153842120    0.0318861634
C        0.2218101643   -1.7987879884    0.0266858933
H        6.5842538129    2.3499112754    0.2259456430
H        4.5108436769    2.7672189108    1.5229925056
H        6.6641599793    0.4782352208   -1.4021607951
H        2.5469704945    1.3496164780    1.2156750348
H        4.6994109204   -0.9602104054   -1.7361271968
H        3.0796865601   -2.5121322587   -1.5490579037
H        0.7888463850   -3.6287492397   -1.0463332195
H        0.3440994695   -2.2412929901   -2.1032529684
H        0.4087107242    0.2570173487   -0.6853691221
H        0.8763091718    0.0131645984    1.0372498281
H       -0.8718249401   -1.7570934317    0.0070817367
H        0.5349167187   -2.3223570287    0.9365123500
23   

C        5.7118975460    1.7121993027    0.0766810435
C        4.6054937536    1.8531697152    0.9172293166
C        5.6921553869    0.7545581128   -0.9395783831
C        3.4807989648    1.0381480536    0.7413303565
C        4.5669263457   -0.0595837470   -1.1139883272
C        3.4431219064    0.0702795317   -0.2797042664
C        2.2558960121   -2.0535591332   -0.9952803853
C        2.2651530760   -0.7983991961   -0.4587912149
C        0.8650233036   -2.6009493598   -1.0760825190
C        0.8517030630   -0.3605040485   -0.1013692837
C        0.1783751652   -1.7384701135   -0.0069848341
H        6.5830189499    2.3429597071    0.2134237876
H        4.6184487803    2.5928710414    1.7095941225
H        6.5484435994    0.6420620493   -1.5947341297
H        2.6448113120    1.1632980676    1.4166938757
H        4.5669122383   -0.7921815488   -1.9117031052
H        3.1419069248   -2.6003272476   -1.2958674770
H        0.8086455288   -3.6693710987   -0.8451191466
H        0.4462687304   -2.3988291806   -2.0674431978
H        0.4301375758    0.2264813018   -0.9236016972
H        0.7707173142    0.1855118169    0.8419769928
H       -0.9110120485   -1.7013394518   -0.1070756561
H        0.4251528730   -2.1631944451    0.9720987504
23   

C        5.7102573490    1.7097853479    0.0786288900
C        4.6683543572    1.7506771212    1.0088847142
C        5.6256652875    0.8521297875   -1.0213793266
C        3.5426793145    0.9364979462    0.8367961046
C        4.4989253830    0.0387577484   -1.1909843937
C        3.4396109017    0.0748100277   -0.2706976421
C        2.2809289312   -2.1018315317   -0.8545088119
C        2.2654581360   -0.8032193318   -0.4396165551
C        0.8917700247   -2.6474735553   -0.9747093238
C        0.8376129369   -0.3191486278   -0.2340058953
C        0.1431670945   -1.6772055557   -0.0466899918
H        6.5827103151    2.3395331926    0.2114448512
H        4.7329037439    2.4104372592    1.8666074493
H        6.4329893067    0.8159742283   -1.7438963474
H        2.7488589147    0.9691193138    1.5728864150
H        4.4422656139   -0.6220425251   -2.0477995726
H        3.1830127459   -2.6725605552   -1.0427759229
H        0.8071917126   -3.6868330928   -0.6421494585
H        0.5435359299   -2.5445856147   -2.0077518395
H        0.4843390721    0.1810871253   -1.1413525304
H        0.7095817900    0.3287859741    0.6378476412
H       -0.9363403061   -1.6452602555   -0.2250137110
H        0.3177813206   -2.0013020443    0.9849792145
23   

C        5.7080474559    1.7093105859    0.0828040607
C        4.7419107709    1.6383706974    1.0905448293
C        5.5476850880    0.9624674482   -1.0880245768
C        3.6157112069    0.8238209809    0.9242837420
C        4.4202852208    0.1484860452   -1.2510662565
C        3.4370423665    0.0768424907   -0.2538317657
C        2.2890256135   -2.1396113641   -0.7003019935
C        2.2632693699   -0.8078743272   -0.4153209700
C        0.9027048552   -2.6802911165   -0.8684984712
C        0.8345858116   -0.2877179694   -0.3678701500
C        0.1042844726   -1.6134470695   -0.1003265441
H        6.5809829549    2.3394871231    0.2102950096
H        4.8656468734    2.2114952740    2.0023231390
H        6.2969203080    1.0122181505   -1.8698689582
H        2.8743660809    0.7647151730    1.7123545616
H        4.3019284753   -0.4307722354   -2.1592567792
H        3.1949557797   -2.7309215235   -0.7695477023
H        0.7757433202   -3.6799749984   -0.4412949739
H        0.6330301022   -2.6786244673   -1.9297811751
H        0.5589167911    0.1246731029   -1.3436824075
H        0.6635198100    0.4461257973    0.4256498078
H       -0.9583380073   -1.5884588286   -0.3617875565
H        0.1961433157   -1.8344727349    0.9685709679
23   

C        5.7069291672    1.7081677937    0.0888761030
C        4.8291863919    1.5055780996    1.1580362317
C        5.4612526431    1.0878989915   -1.1398788489
C        3.7061961241    0.6858448357    0.9954004053
C        4.3372213505    0.2683406569   -1.2984547047
C        3.4445102499    0.0644123029   -0.2375125344
C        2.2777259624   -2.1741669816   -0.5293905822
C        2.2654146535   -0.8187333144   -0.4041561714
C        0.8937090121   -2.7039255236   -0.7451382384
C        0.8530743617   -0.2675306500   -0.5254935841
C        0.0687383056   -1.5404393753   -0.1680213449
H        6.5769803655    2.3430026651    0.2129139416
H        5.0182862589    1.9815798818    2.1134334232
H        6.1412378951    1.2405666155   -1.9701940234
H        3.0293937173    0.5258011403    1.8264956838
H        4.1504408024   -0.2133264462   -2.2511162563
H        3.1703036207   -2.7850116499   -0.4560371458
H        0.7062655267   -3.6454592819   -0.2194579199
H        0.7064482661   -2.8187646571   -1.8179080978
H        0.6621124471    0.0370325514   -1.5594068371
H        0.6478902168    0.5549316139    0.1668147446
H       -0.9699586986   -1.5259085386   -0.5130640872
H        0.0730875326   -1.6388114267    0.9229014911
23   

C        5.7076549811    1.7143763355    0.0998449479
C        4.9332281772    1.3507959857    1.2056500011
C        5.3667724684    1.2452108469   -1.1724371282
C        3.8195270993    0.5196815908    1.0366584415
C        4.2524011653    0.4136894598   -1.3367532049
C        3.4681396699    0.0426152271   -0.2364538470
C        2.2543581667   -2.1909835887   -0.3551128958
C        2.2821843361   -0.8317888254   -0.4169077549
C        0.8711597862   -2.7076317182   -0.6045377710
C        0.9008259448   -0.2623437947   -0.7007623089
C        0.0502639039   -1.4577798725   -0.2411738856
H        6.5699809244    2.3587581653    0.2285086646
H        5.1939934474    1.7125110980    2.1937189109
H        5.9644414898    1.5255284539   -2.0322791614
H        3.2189089861    0.2392798957    1.8940301251
H        3.9891362343    0.0520731299   -2.3238506430
H        3.1147822027   -2.8085090954   -0.1237220096
H        0.6138935044   -3.5685486002    0.0204250262
H        0.7556197714   -2.9542837185   -1.6651670674
H        0.7866320615   -0.0864628627   -1.7750667120
H        0.6825121554    0.6468423418   -0.1318153745
H       -0.9614895957   -1.4609764792   -0.6589079138
H       -0.0228623238   -1.4141755308    0.8508319636
23   

C        5.6952039902    1.7204547387    0.1125924887
C        5.0283489745    1.1930279388    1.2223411600
C        5.2568757342    1.4042074278   -1.1768126616
C        3.9263489223    0.3491941337    1.0401660595
C        4.1545989583    0.5593483464   -1.3541526770
C        3.4830149147    0.0170012399   -0.2500041438
C        2.2156160628   -2.1860270088   -0.1936368017
C        2.2960650298   -0.8501953583   -0.4424731742
C        0.8358371869   -2.6976550415   -0.4700879027
C        0.9529046346   -0.2895329777   -0.8851059800
C        0.0360891079   -1.3908396169   -0.3282700494
H        6.5481153293    2.3751555138    0.2515282679
H        5.3622246885    1.4391090167    2.2238828374
H        5.7687820967    1.8145042249   -2.0397867071
H        3.4059325786   -0.0532428978    1.9013626942
H        3.8141894482    0.3198664148   -2.3547198985
H        3.0328489515   -2.7845860685    0.1924128186
H        0.5096484339   -3.4625901298    0.2415367279
H        0.7818587533   -3.0781357041   -1.4955010865
H        0.9082700597   -0.2555165789   -1.9782181655
H        0.7318447591    0.6927076830   -0.4556837206
H       -0.9475808378   -1.4244529055   -0.8072417282
H       -0.1023859195   -1.2001113026    0.7414030898
23   

C        5.6866611958    1.7274123853    0.1228400961
C        5.1242539677    1.0570957307    1.2129133433
C        5.1474466670    1.5513402690   -1.1548353428
C        4.0265358129    0.2095543460    1.0225660558
C        4.0498158336    0.7024179041   -1.3411669868
C        3.4840031792    0.0134044768   -0.2588623392
C        2.1737955806   -2.1484942635   -0.0572688341
C        2.3008388837   -0.8513616009   -0.4529803963
C        0.8051895505   -2.6710302825   -0.3663795190
C        0.9990084558   -0.3301332469   -1.0435278310
C        0.0254192661   -1.3465281547   -0.4257404496
H        6.5362751667    2.3849377065    0.2684771752
H        5.5353865742    1.1958195257    2.2063113857
H        5.5775856030    2.0736474009   -2.0017660658
H        3.5867035491   -0.3003298927    1.8716160275
H        3.6327350662    0.5734242980   -2.3329511323
H        2.9484377982   -2.7092203901    0.4532262731
H        0.4179764707   -3.3457923911    0.4034992103
H        0.8102508514   -3.1647594759   -1.3437966612
H        1.0237988925   -0.4230812942   -2.1338473808
H        0.7707576864    0.6981537279   -0.7457978527
H       -0.9263699993   -1.4215214091   -0.9611019308
H       -0.1762494248   -1.0322731446    0.6040028455
23   

C        5.6791240687    1.7308084463    0.1299979412
C        5.2140489981    0.9462453167    1.1886838719
C        5.0406800443    1.6704298113   -1.1116519858
C        4.1142715815    0.1004074410    1.0029612280
C        3.9412294080    0.8231543404   -1.2942997145
C        3.4691876097    0.0196370864   -0.2447253227
C        2.1207455083   -2.1023965400    0.0732743019
C        2.2924859941   -0.8486042713   -0.4338548388
C        0.7717342511   -2.6464407348   -0.2815845879
C        1.0423499095   -0.3878491906   -1.1694172031
C        0.0143095825   -1.3308727429   -0.5251178803
H        6.5305298657    2.3867299170    0.2723722527
H        5.7025732556    0.9947588289    2.1551749912
H        5.3959732085    2.2807012295   -1.9341210868
H        3.7533687659   -0.4957215195    1.8325859427
H        3.4525116271    0.7852774713   -2.2605724089
H        2.8495122743   -2.6196726823    0.6865730200
H        0.3227264876   -3.2408439511    0.5203101074
H        0.8405763045   -3.2332557714   -1.2035699557
H        1.1451838746   -0.5933742563   -2.2396242580
H        0.8031050868    0.6662390241   -0.9967270753
H       -0.8983872642   -1.4532100568   -1.1168517641
H       -0.2548404495   -0.9148144629    0.4518072340
23   

C        5.7053891148    1.7361096878    0.0561662823
C        5.0121521811    1.7604498491   -1.1560066178
C        5.2388710646    0.9408607380    1.1052956298
C        3.8531983778    0.9920259600   -1.3164087780
C        4.0793388601    0.1735472819    0.9425378736
C        3.3636531262    0.1897129285   -0.2672796349
C        1.1060796531   -0.3840158875   -1.2742335398
C        2.1527460967   -0.6308468774   -0.4338707671
C        0.0716525145   -1.4625528516   -1.1820706458
C        1.9406126267   -1.9410672215    0.3108802689
C        0.9369049449   -2.6106625200   -0.6399228090
H        6.6031904375    2.3307468773    0.1816854504
H        5.3730965280    2.3727356379   -1.9745063379
H        5.7748365422    0.9177992944    2.0472838645
H        3.3341622386    1.0143162504   -2.2667160044
H        3.7316741190   -0.4342153573    1.7690960091
H        1.0415513611    0.4641907628   -1.9454586302
H       -0.3830470822   -1.7065190363   -2.1473153114
H       -0.6965280835   -1.1767850285   -0.4558557439
H        1.4836555092   -1.7435146219    1.2858073484
H        2.8569183411   -2.5294582481    0.4220965852
H        0.3580003335   -3.4128204934   -0.1713701571
H        1.5006438960   -3.0300591678   -1.4803289323
23   

C        5.7041759665    1.7435234535    0.0606055774
C        4.9430441252    1.8737048884   -1.1018906546
C        5.3132040604    0.8334915865    1.0438345767
C        3.7936892227    1.0947467247   -1.2794182368
C        4.1632556769    0.0556860474    0.8643857752
C        3.3793782981    0.1687438242   -0.3003233518
C        1.1697807089   -0.4687914361   -1.3866713521
C        2.1709597129   -0.6530664534   -0.4754842674
C        0.1026816361   -1.5088867470   -1.2416236970
C        1.8821376580   -1.8757538466    0.3841812108
C        0.9060430066   -2.6149164138   -0.5429369225
H        6.5945050841    2.3463961828    0.1993763676
H        5.2429776435    2.5781404397   -1.8693078183
H        5.8999776304    0.7298257588    1.9494336072
H        3.2258674914    1.2109177199   -2.1936032815
H        3.8822738766   -0.6349087521    1.6496144342
H        1.1487773705    0.3117067014   -2.1373735684
H       -0.3097898752   -1.8390400603   -2.2001919854
H       -0.6926398268   -1.1334926374   -0.5891759807
H        1.3862580220   -1.5687362517    1.3106195794
H        2.7703796794   -2.4785408750    0.5978612799
H        0.2820790078   -3.3504930105   -0.0255089719
H        1.4969758391   -3.1318752149   -1.3068405573
23   

C        5.6942941526    1.7499712757    0.0641457289
C        4.8542906410    1.9846062865   -1.0241078773
C        5.3886119088    0.7274359591    0.9619914736
C        3.7135819957    1.1960431672   -1.2138379133
C        4.2471290291   -0.0599004102    0.7702994779
C        3.3840991549    0.1506362763   -0.3256557798
C        1.2336870847   -0.5614678314   -1.4899334208
C        2.1803592564   -0.6780998488   -0.5108310367
C        0.1310736248   -1.5570690208   -1.3065558857
C        1.8152727150   -1.8086268234    0.4413892663
C        0.8611417900   -2.6071631961   -0.4592345820
H        6.5781478142    2.3600060577    0.2126660877
H        5.0848190398    2.7796087717   -1.7240736708
H        6.0354462656    0.5430831015    1.8121710382
H        3.0827378634    1.4058819735   -2.0675624243
H        4.0439014990   -0.8353318062    1.4970274143
H        1.2700727185    0.1423776953   -2.3120551469
H       -0.2374119101   -1.9702472867   -2.2507704427
H       -0.6876968178   -1.1005330463   -0.7406487684
H        1.2888401763   -1.4043417891    1.3119322129
H        2.6674689440   -2.4219047684    0.7488387564
H        0.1882577384   -3.2700945936    0.0938465370
H        1.4719902086   -3.2143113314   -1.1361078911
