30   

C       -1.4854656948    0.9634343812    0.9076251784
C       -1.2341634330   -0.2557817958    1.5397032944
C       -0.5037262434    1.5386152547    0.0991065892
C        5.5528334420    1.2263195795   -1.2597718571
C       -0.0016993567   -0.8969106170    1.3688503563
C        0.7284991674    0.8985222029   -0.0723618817
C        5.1995642940    0.0113419500   -1.8384485397
C        4.8896679586    1.6546037377   -0.1147541642
C        1.0067420072   -0.3261700446    0.5726806518
C        3.4642495892   -0.3164043582   -0.1651246874
C        4.1827631242   -0.7788761061   -1.2957756924
C        3.8574987955    0.8967277953    0.4419786449
C        2.2913810884   -1.0575555883    0.3842140039
C        3.8259278209   -3.1611517646   -1.1471486389
C        3.5597822405   -3.1145844037    0.3600055060
N        2.3392980894   -2.3409536208    0.6753949367
N        3.9382331404   -2.0142713074   -1.8968071570
O        3.9824433847   -4.2220605286   -1.7311082140
F        3.2554186384    1.3460201016    1.5678947710
H       -2.4412640552    1.4580181656    1.0394951543
H       -1.9960963218   -0.7101760663    2.1628006549
H       -0.6985759624    2.4799116511   -0.4021196278
H        6.3486990541    1.8259713948   -1.6892786020
H        0.1592997241   -1.8455212618    1.8701682551
H        1.4601421463    1.3604146522   -0.7251298292
H        5.7387427038   -0.3302754373   -2.7145543594
H        5.1700970204    2.5884005275    0.3580552274
H        3.4377776081   -4.1412259661    0.7162952797
H        4.4287842165   -2.6890780824    0.8697449632
H        4.2578061941   -2.1997287112   -2.8387839091
30   

C       -1.4479863581    1.0162747263    0.9392413899
C       -1.1304494962   -0.1085493629    1.7044322632
C       -0.5604259798    1.4587349411   -0.0442398586
C        5.5529673834    1.2402878617   -1.1687947393
C        0.0729570879   -0.7897681393    1.4875012855
C        0.6425314527    0.7777645917   -0.2606097557
C        5.2415813321    0.0296291362   -1.7791361578
C        4.8295037350    1.6471588436   -0.0532802214
C        0.9777853201   -0.3570938044    0.5053286860
C        3.4370081711   -0.3438618499   -0.1901524682
C        4.2097019716   -0.7796877449   -1.2961270122
C        3.7816746772    0.8705237178    0.4450564824
C        2.2481215831   -1.1034158293    0.2910800637
C        3.8355535946   -3.1682344076   -1.2352899627
C        3.4986397575   -3.1685216181    0.2575397064
N        2.2729572756   -2.3937475870    0.5478273484
N        3.9980333724   -1.9997157575   -1.9402773993
O        4.0097955096   -4.2110860513   -1.8460668402
F        3.1218631326    1.3034285372    1.5447269987
H       -2.3811382554    1.5422745982    1.1068262129
H       -1.8174163509   -0.4568655844    2.4673021882
H       -0.8049389482    2.3289356187   -0.6427128731
H        6.3606968719    1.8549121045   -1.5525195981
H        0.2992067003   -1.6620034952    2.0918651581
H        1.3133720966    1.1321927389   -1.0354319064
H        5.8234792370   -0.2918759739   -2.6352860810
H        5.0738238138    2.5793728270    0.4421282091
H        3.3519860320   -4.2053069941    0.5728456178
H        4.3473827786   -2.7696963951    0.8202014275
H        4.3615279529   -2.1589305491   -2.8710896637
30   

C       -1.4080633435    1.0522900828    0.9474341178
C       -0.9994022425    0.0429771621    1.8235418074
C       -0.6373859680    1.3465115815   -0.1804016281
C        5.5647413062    1.2492524615   -1.0697550350
C        0.1766908086   -0.6726767159    1.5705439685
C        0.5381644894    0.6303344189   -0.4314708048
C        5.2886535242    0.0489856432   -1.7159602101
C        4.7894256456    1.6307179618    0.0191864882
C        0.9550072189   -0.3946449240    0.4381513116
C        3.4220056168   -0.3697718904   -0.2112912901
C        4.2425848691   -0.7763415928   -1.2943172391
C        3.7269045734    0.8380531184    0.4574951344
C        2.2192823203   -1.1462883211    0.2003763477
C        3.8577672455   -3.1673537081   -1.3253137282
C        3.4581301278   -3.2160127396    0.1505926498
N        2.2274286330   -2.4423793085    0.4212150774
N        4.0611268943   -1.9776209657   -1.9820224972
O        4.0499468389   -4.1901529997   -1.9639227355
F        3.0181583103    1.2502212070    1.5343774785
H       -2.3196420161    1.6057315261    1.1429894196
H       -1.5931876401   -0.1870818977    2.7008468205
H       -0.9499333943    2.1301115714   -0.8611987968
H        6.3834893029    1.8767262646   -1.4064015287
H        0.4846372910   -1.4526665808    2.2589494425
H        1.1291556086    0.8694076655   -1.3089456352
H        5.9080228496   -0.2504907466   -2.5535937547
H        5.0035678593    2.5560835816    0.5406782820
H        3.2921736250   -4.2619686006    0.4231937266
H        4.2859316583   -2.8441450724    0.7608660361
H        4.4643599512   -2.1089941626   -2.9007577344
30   

C       -1.3747043104    1.0757325911    0.9323688010
C       -0.8516147442    0.2232729593    1.9088927192
C       -0.7362673388    1.1873724086   -0.3058341892
C        5.5859728235    1.2530729206   -0.9538084093
C        0.3055413916   -0.5188820414    1.6451010390
C        0.4204054467    0.4441369649   -0.5662046788
C        5.3296097182    0.0716505017   -1.6408567886
C        4.7787888151    1.6039650308    0.1217746062
C        0.9461565219   -0.4278208822    0.4029578978
C        3.4219240389   -0.3918800853   -0.2007514707
C        4.2726761541   -0.7654666288   -1.2730078827
C        3.7050703381    0.7992411226    0.5078908775
C        2.2093964419   -1.1829946519    0.1494472314
C        3.8785381509   -3.1541704162   -1.4020610637
C        3.4353648939   -3.2565951823    0.0582501823
N        2.2028031386   -2.4848623932    0.3248559738
N        4.1090385558   -1.9421392183   -2.0067054628
O        4.0822676275   -4.1530650290   -2.0740156104
F        2.9680456844    1.1848448891    1.5751989126
H       -2.2712093674    1.6504685698    1.1359939817
H       -1.3408794212    0.1370027550    2.8723826526
H       -1.1356468339    1.8512572102   -1.0641027159
H        6.4129748553    1.8902963091   -1.2494215568
H        0.7086550799   -1.1750068811    2.4091362546
H        0.9148031681    0.5425108320   -1.5265642217
H        5.9721264778   -0.2029404480   -2.4695201795
H        4.9760278797    2.5153197825    0.6736805420
H        3.2547507743   -4.3110394803    0.2850421803
H        4.2477055025   -2.9151664626    0.7059040398
H        4.5385192125   -2.0421193420   -2.9174788928
30   

C       -1.3917176550    1.0869190126    0.8892828994
C       -0.7309770399    0.4670737635    1.9534221968
C       -0.8887195194    0.9584414467   -0.4079898900
C        5.6274688265    1.2245513217   -0.8277501233
C        0.4282221942   -0.2815938622    1.7183203077
C        0.2705112241    0.2090212530   -0.6375428776
C        5.3444531668    0.0818021025   -1.5668267833
C        4.8311158903    1.5415847986    0.2657303071
C        0.9367403781   -0.4283160278    0.4227237435
C        3.4308166150   -0.4093865093   -0.1413538925
C        4.2714983695   -0.7493519646   -1.2335976165
C        3.7417676817    0.7426512721    0.6189944314
C        2.2006859716   -1.1926485338    0.1667090963
C        3.8312677794   -3.1212188033   -1.4766998592
C        3.3800688906   -3.2848969301   -0.0246454728
N        2.1621324999   -2.5007925852    0.2704842025
N        4.0823341872   -1.8857707812   -2.0228107538
O        4.0180287498   -4.0901298613   -2.1958320857
F        3.0205620106    1.0968615859    1.7064344749
H       -2.2902362496    1.6662201833    1.0698044767
H       -1.1153339690    0.5659024448    2.9621968809
H       -1.3956029603    1.4396006657   -1.2367285375
H        6.4661259816    1.8579957939   -1.0974813946
H        0.9371537138   -0.7580563219    2.5491891184
H        0.6581846673    0.1177737653   -1.6463962590
H        5.9780902971   -0.1668988892   -2.4103540318
H        5.0489369859    2.4225801959    0.8577184742
H        3.1761048202   -4.3449257452    0.1504189881
H        4.1958262204   -2.9913958399    0.6418994682
H        4.5097981050   -1.9499860722   -2.9377498212
30   

C       -1.2749164499    0.7195778392    0.6763967793
C       -0.4807087734    0.4407232687    1.7910274449
C       -0.8366917726    0.3437853248   -0.5949562904
C        5.8629403314    1.3333150315   -0.7000669714
C        0.7486887373   -0.2099599020    1.6321441983
C        0.3933079618   -0.3055727966   -0.7464270890
C        5.5994215890    0.2441932670   -1.5210349085
C        5.0835571113    1.5337805788    0.4315754930
C        1.2052906993   -0.5911517019    0.3652192855
C        3.7296417080   -0.4215961943   -0.1028574088
C        4.5609094154   -0.6454868360   -1.2335412545
C        4.0275483590    0.6743639354    0.7422004433
C        2.5272318271   -1.2719643713    0.1447278193
C        4.2256329332   -3.0085384471   -1.6420319228
C        3.7892486210   -3.2941869003   -0.2044768135
N        2.5376988581   -2.5846372992    0.1340373529
N        4.3994526546   -1.7260565385   -2.1034145582
O        4.4562706047   -3.9142270571   -2.4277764224
F        3.3335524840    0.9184174875    1.8739149783
H       -2.2284621778    1.2211001377    0.7978632907
H       -0.8185071738    0.7235455693    2.7815121499
H       -1.4493069180    0.5528407940   -1.4646076860
H        6.6746664832    2.0138571388   -0.9352481274
H        1.3423305700   -0.4372398190    2.5104426452
H        0.7251308427   -0.5954718584   -1.7376565120
H        6.2221687053    0.0834156415   -2.3935164085
H        5.2892991275    2.3702947657    1.0888206263
H        3.6313830857   -4.3715888401   -0.1036154649
H        4.5920072036   -3.0104993666    0.4818168082
H        4.8163839854   -1.7047236136   -3.0251783726
30   

C       -1.3051326705    0.6953879251    0.5625563080
C       -0.4302941583    0.7247726021    1.6494440052
C       -0.9340754085    0.0199401763   -0.5997140870
C        5.9230848070    1.3024056214   -0.5799155213
C        0.8148485308    0.0883425282    1.5708807315
C        0.3112672846   -0.6123174046   -0.6717626090
C        5.5590316261    0.3102687023   -1.4807212563
C        5.2456427028    1.4014724726    0.6280703345
C        1.2153879045   -0.5823349093    0.4074991836
C        3.7654880521   -0.4308156642    0.0001048458
C        4.5119929002   -0.5713489098   -1.2010023124
C        4.1846121758    0.5459296590    0.9340566551
C        2.5418808964   -1.2651962186    0.2249849833
C        4.1328440813   -2.8919275351   -1.7478700509
C        3.7603449349   -3.2714778477   -0.3123412818
N        2.5287289981   -2.5739453664    0.1135120060
N        4.2694338620   -1.5797639355   -2.1361624018
O        4.3268573948   -3.7443485312   -2.6003017164
F        3.6198290210    0.6665969298    2.1514337962
H       -2.2705989004    1.1848834269    0.6244213146
H       -0.7210757458    1.2310019017    2.5629215533
H       -1.6100332895   -0.0178095703   -1.4464704040
H        6.7400654347    1.9787123074   -0.8090723687
H        1.4303282266    0.0886518903    2.4587782533
H        0.5872443074   -1.1361739852   -1.5809931679
H        6.1125439687    0.2150823081   -2.4077862818
H        5.5406762831    2.1511709609    1.3526039419
H        3.5958702489   -4.3519420726   -0.2747107728
H        4.5930341764   -3.0367959437    0.3567041075
H        4.6342399491   -1.4981763084   -3.0764493404
30   

C       -1.3624757789    0.6234137038    0.5239965979
C       -0.3881052079    0.9395502560    1.4703096208
C       -1.0663052300   -0.2913151218   -0.4844085185
C        5.9468444878    1.3164213278   -0.4267503506
C        0.8805870571    0.3491092431    1.4055235977
C        0.2015434006   -0.8776550688   -0.5443368758
C        5.5133928388    0.4476022197   -1.4217564088
C        5.3468298736    1.2666014354    0.8267070749
C        1.2103537855   -0.5631871582    0.3913634498
C        3.7753018618   -0.4187882330    0.0482782042
C        4.4619320357   -0.4423543071   -1.1911284808
C        4.2842777231    0.3958518263    1.0824424637
C        2.5378759208   -1.2458880739    0.2399356253
C        4.0633535659   -2.7107506571   -1.8921817613
C        3.7487833028   -3.1995780561   -0.4721704865
N        2.5262918970   -2.5458641975    0.0429779079
N        4.1713079793   -1.3707820792   -2.1925373411
O        4.2301346979   -3.4984741969   -2.8101457132
F        3.8123617166    0.3196313296    2.3447842983
H       -2.3445472798    1.0799730562    0.5756580049
H       -0.6164553334    1.6415730046    2.2642522638
H       -1.8176271140   -0.5513340277   -1.2214867422
H        6.7668246580    2.0011410460   -0.6169385420
H        1.5747605624    0.6201287548    2.1833413473
H        0.4101906416   -1.5906211238   -1.3354264915
H        6.0202761229    0.4487717611   -2.3798469321
H        5.7099749521    1.9023968526    1.6253428489
H        3.5939330775   -4.2815647596   -0.5067750451
H        4.6031228505   -3.0056767358    0.1826577150
H        4.4988814261   -1.2185086508   -3.1376866332
30   

C       -1.3953640600    0.5925936251    0.5637512227
C       -0.3302290742    1.1089078042    1.2999361074
C       -1.1811061236   -0.4973430339   -0.2764476286
C        5.9682380902    1.3169230263   -0.2931336332
C        0.9455428988    0.5403426082    1.1948234301
C        0.0938766636   -1.0623655842   -0.3773362602
C        5.5344132965    0.5143810008   -1.3435731056
C        5.3546235055    1.2007146724    0.9505565720
C        1.1951930337   -0.5529891977    0.3490428314
C        3.7675022691   -0.4052246380    0.0524995867
C        4.4685617372   -0.3724703734   -1.1760269485
C        4.2765557384    0.3323094543    1.1412245179
C        2.5225424563   -1.2307163947    0.1990942365
C        4.0686047613   -2.6046518468   -1.9747476684
C        3.7524433037   -3.1510592309   -0.5746474328
N        2.5242522608   -2.5254353872   -0.0368591712
N        4.1827858006   -1.2534067702   -2.2201242911
O        4.2368827303   -3.3553395937   -2.9230236238
F        3.7789247714    0.1807720253    2.3896705011
H       -2.3825004169    1.0336632302    0.6450245715
H       -0.4908706245    1.9559890711    1.9571785952
H       -2.0018788969   -0.9104792617   -0.8518173457
H        6.8004206593    1.9989053705   -0.4337761026
H        1.7215966247    0.9975400099    1.7868358976
H        0.2275366532   -1.9128143125   -1.0379452169
H        6.0539049212    0.5615883968   -2.2937264975
H        5.7191494104    1.7805022110    1.7901468212
H        3.6042246662   -4.2317214057   -0.6523700227
H        4.6038719076   -2.9790503960    0.0900335883
H        4.5168945807   -1.0620453213   -3.1558174766
30   

C       -1.4013389539    0.6020958735    0.6177409853
C       -0.2712499809    1.2485055653    1.1151272952
C       -1.2580858215   -0.6191763451   -0.0360124417
C        5.9829407256    1.3016191268   -0.1745877989
C        0.9979020472    0.6771238559    0.9595581623
C        0.0105243091   -1.1873155769   -0.1882821523
C        5.5796070473    0.5336588792   -1.2628663801
C        5.3173646798    1.1646582706    1.0401596538
C        1.1767213221   -0.5509647835    0.3009932529
C        3.7504551548   -0.3999427001    0.0392127777
C        4.4971516615   -0.3432230551   -1.1608107683
C        4.2208449975    0.3077838194    1.1644198394
C        2.5016625607   -1.2251632483    0.1332735185
C        4.1046174185   -2.5465677105   -2.0356596779
C        3.7521232025   -3.1282478714   -0.6587995572
N        2.5127404284   -2.5148174668   -0.1321030310
N        4.2388733422   -1.1905414696   -2.2388083218
O        4.2928030579   -3.2723052075   -2.9995147799
F        3.6488436426    0.1502519100    2.3812409098
H       -2.3835071783    1.0454987287    0.7374295266
H       -0.3756441613    2.2009475975    1.6223378981
H       -2.1295427874   -1.1323927032   -0.4266218695
H        6.8291186995    1.9749344313   -0.2644146604
H        1.8282574280    1.2454508986    1.3499820076
H        0.0807437952   -2.1412987822   -0.7003283411
H        6.1360200734    0.5992599345   -2.1907812417
H        5.6523807301    1.7211325027    1.9074113066
H        3.6040616104   -4.2060906658   -0.7689795219
H        4.5876491264   -2.9766122981    0.0305362019
H        4.6018531695   -0.9749767150   -3.1583468865
30   

C       -1.3883055304    0.6303896613    0.6684067566
C       -0.2218464428    1.3520115170    0.9164519246
C       -1.2969217490   -0.6830022355    0.2135139197
C        5.9871172377    1.2652427882   -0.0644550478
C        1.0321794345    0.7632588111    0.7118254896
C       -0.0433008499   -1.2687689751    0.0110728278
C        5.6288860084    0.5164294251   -1.1815447348
C        5.2559196552    1.1277206596    1.1116117219
C        1.1572832009   -0.5583686788    0.2527167738
C        3.7284524726   -0.4144806634    0.0166424526
C        4.5319512997   -0.3479847951   -1.1462777941
C        4.1434914987    0.2849411244    1.1693180334
C        2.4754256581   -1.2336682763    0.0526186938
C        4.1432380395   -2.5223388452   -2.0948271257
C        3.7323989125   -3.1320869840   -0.7477829122
N        2.4839621505   -2.5162857616   -0.2459924375
N        4.3106689152   -1.1650927946   -2.2551457113
O        4.3575564894   -3.2261491937   -3.0694261685
F        3.4859965006    0.1475825580    2.3448112823
H       -2.3589217618    1.0871345706    0.8261155989
H       -0.2865288566    2.3762995887    1.2656413083
H       -2.1972688187   -1.2541113581    0.0170536789
H        6.8452131011    1.9283039980   -0.1030164217
H        1.8928850195    1.3894665688    0.8988966816
H       -0.0149159468   -2.2950483494   -0.3395670794
H        6.2308099709    0.5884975610   -2.0801253906
H        5.5480819635    1.6759690228    1.9994043169
H        3.5745295857   -4.2046272417   -0.8910310933
H        4.5450313879   -3.0100399878   -0.0260050855
H        4.7143406003   -0.9317897455   -3.1531500858
30   

C       -1.3666741948    0.6558638678    0.7264627613
C       -0.1966045105    1.4144000979    0.7282247862
C       -1.2970163627   -0.7120795498    0.4692766207
C        5.9774091921    1.2272860465    0.0311114303
C        1.0397534285    0.8075293991    0.4757963760
C       -0.0606954664   -1.3159295926    0.2182230951
C        5.6694252826    0.4891417527   -1.1077283841
C        5.1817342297    1.0958353675    1.1648369627
C        1.1405478513   -0.5688355882    0.2159807932
C        3.7055330177   -0.4373717280   -0.0122069439
C        4.5638122563   -0.3647518275   -1.1360109881
C        4.0597434335    0.2642971961    1.1603441378
C        2.4475223083   -1.2448981690   -0.0352086912
C        4.1704805574   -2.5062032928   -2.1634677826
C        3.6947310486   -3.1441334434   -0.8530271324
N        2.4432252523   -2.5174927024   -0.3735448465
N        4.3811201825   -1.1509731998   -2.2739625488
O        4.4066310656   -3.1859197928   -3.1500308030
F        3.3293372917    0.1457640955    2.2938359451
H       -2.3240162561    1.1262192386    0.9209704417
H       -0.2455315217    2.4800113351    0.9214118466
H       -2.2007793713   -1.3108651235    0.4642486774
H        6.8428544086    1.8817982154    0.0410503362
H        1.9088943257    1.4523312469    0.4651551169
H       -0.0443407214   -2.3835767996    0.0261857877
H        6.3155475879    0.5642493978   -1.9748263817
H        5.4284336891    1.6419929690    2.0676175602
H        3.5193057583   -4.2080770184   -1.0348053045
H        4.4830508068   -3.0626979546   -0.0993123085
H        4.8270597200   -0.9016260700   -3.1473372263
30   

C       -1.3429640679    0.6746993804    0.7788892518
C       -0.2022125898    1.4436060873    0.5455613669
C       -1.2602826353   -0.7161663984    0.7161640219
C        5.9605363937    1.1976795232    0.1148811293
C        1.0184729035    0.8235883441    0.2530448900
C       -0.0392692089   -1.3331238808    0.4243043370
C        5.6995541071    0.4684190601   -1.0410515556
C        5.1088821415    1.0719527613    1.2073587821
C        1.1291328790   -0.5746078033    0.1911146548
C        3.6845206585   -0.4559019296   -0.0397823521
C        4.5897491128   -0.3764049301   -1.1268118459
C        3.9819070773    0.2497198688    1.1470104868
C        2.4217998663   -1.2480046602   -0.1205837588
C        4.1846825113   -2.4796642649   -2.2378003988
C        3.6486823768   -3.1475845633   -0.9678751861
N        2.3993733359   -2.5080042640   -0.5009001461
N        4.4420483440   -1.1299626995   -2.2919456172
O        4.4346856091   -3.1314239179   -3.2396656793
F        3.1942213285    0.1433358088    2.2425971035
H       -2.2887660753    1.1545918193    1.0040830587
H       -0.2627888574    2.5252028456    0.5864944865
H       -2.1421266016   -1.3215691138    0.8926672337
H        6.8297491746    1.8450138206    0.1687209171
H        1.8735515429    1.4601672754    0.0585508340
H       -0.0039494020   -2.4167018296    0.3822815197
H        6.3835462685    0.5471216958   -1.8782744515
H        5.3141751334    1.6162753244    2.1215468745
H        3.4527714789   -4.1996454320   -1.1928257581
H        4.4146306013   -3.1136085623   -0.1879675640
H        4.9254132617   -0.8642978110   -3.1402599736
30   

C       -1.3257949847    0.6897589752    0.8275994927
C       -0.2425732696    1.4405059303    0.3661627936
C       -1.1987774062   -0.6934489331    0.9664495874
C        5.9463797123    1.1518997600    0.2131880523
C        0.9659650511    0.8097103227    0.0480803237
C        0.0102984387   -1.3213031462    0.6483722526
C        5.7239135363    0.4295352969   -0.9547400741
C        5.0471699406    1.0368945573    1.2675530261
C        1.1181926578   -0.5779453543    0.1932471059
C        3.6627337429   -0.4808333631   -0.0367872791
C        4.6087166750   -0.4018525148   -1.0896265373
C        3.9141354857    0.2281985818    1.1594414080
C        2.3944551000   -1.2527502402   -0.1713677642
C        4.1865310487   -2.4685840685   -2.2723145240
C        3.5941348425   -3.1580448510   -1.0408398354
N        2.3503929577   -2.5010800436   -0.5841626956
N        4.4905267815   -1.1281465190   -2.2756488455
O        4.4459808167   -3.0965153364   -3.2868752428
F        3.0802309950    0.1367672994    2.2216475485
H       -2.2627650923    1.1773300540    1.0723282641
H       -0.3394715426    2.5139149872    0.2496509441
H       -2.0374523061   -1.2837333434    1.3178086477
H        6.8199818545    1.7889958648    0.3046922885
H        1.7851377387    1.4159586882   -0.3224468816
H        0.0888840540   -2.3980437053    0.7563926183
H        6.4404085368    0.5065094947   -1.7644785524
H        5.2187338357    1.5799115978    2.1894288402
H        3.3764303550   -4.1967598667   -1.3045065947
H        4.3385258360   -3.1703078766   -0.2397494715
H        5.0080286150   -0.8526653232   -3.1003951272
30   

C       -1.3045947992    0.6989817195    0.8458179141
C       -0.3092642936    1.4099451777    0.1702360219
C       -1.0971886560   -0.6433106777    1.1726784003
C        5.9614700107    1.1062722116    0.2981989741
C        0.8932033564    0.7807096556   -0.1727417035
C        0.1057901637   -1.2697345324    0.8290492358
C        5.7649534799    0.4110996175   -0.8903466888
C        5.0254059318    0.9883963679    1.3191457243
C        1.1242359914   -0.5607883036    0.1655193635
C        3.6625071069   -0.4870004501   -0.0558214265
C        4.6411678940   -0.3982089321   -1.0784246436
C        3.8834559802    0.2011379586    1.1593922303
C        2.3878584588   -1.2329274708   -0.2481526963
C        4.2005148062   -2.4126614902   -2.3493072668
C        3.5592878085   -3.1334337214   -1.1618981899
N        2.3227760235   -2.4643304241   -0.7039173010
N        4.5443117667   -1.0835541636   -2.2907817406
O        4.4674143609   -3.0065931338   -3.3822055560
F        3.0153374987    0.1091164050    2.1937350405
H       -2.2372493114    1.1847470322    1.1098301043
H       -0.4706950611    2.4490689120   -0.0930677939
H       -1.8695569351   -1.2028905847    1.6879782309
H        6.8417048691    1.7268145528    0.4305712951
H        1.6502741814    1.3434163871   -0.7081382741
H        0.2526791798   -2.3160093435    1.0755752608
H        6.5073192604    0.4944008161   -1.6757699434
H        5.1741420856    1.5130451928    2.2554936990
H        3.3210661176   -4.1544082410   -1.4729304630
H        4.2839790981   -3.1986746140   -0.3454923349
H        5.0913817985   -0.7917057635   -3.0904593367
30   

C       -1.3150444425    0.7057443142    0.8561578719
C       -0.4309086381    1.3345562935   -0.0254107664
C       -0.9981290814   -0.5511725054    1.3787940223
C        5.9757499364    1.0336780206    0.4057332678
C        0.7711076543    0.7097294566   -0.3780236384
C        0.2041844563   -1.1732571796    1.0247346411
C        5.7914836695    0.3727769712   -0.8038352799
C        5.0139934528    0.9117659786    1.4016572758
C        1.1110176950   -0.5398070123    0.1575497092
C        3.6531758908   -0.5034982204   -0.0379993061
C        4.6554616239   -0.4070824948   -1.0374731932
C        3.8597448551    0.1531551945    1.1975386645
C        2.3687059663   -1.2163693691   -0.2797109710
C        4.1913282185   -2.3669398660   -2.3869106413
C        3.5085333579   -3.1124513231   -1.2391916316
N        2.2813527855   -2.4287851058   -0.7781973105
N        4.5695693318   -1.0510452045   -2.2733443954
O        4.4619449333   -2.9297604397   -3.4361123702
F        2.9684060767    0.0574285362    2.2113718898
H       -2.2475644760    1.1875530748    1.1277750377
H       -0.6791031724    2.3045766513   -0.4409143528
H       -1.6857946496   -1.0484891123    2.0533070519
H        6.8652539158    1.6321454171    0.5730513574
H        1.4442870823    1.2003517974   -1.0727185727
H        0.4385918210   -2.1561481806    1.4192369974
H        6.5523112656    0.4612206065   -1.5707928319
H        5.1515849706    1.4115057159    2.3531890653
H        3.2499052255   -4.1147381781   -1.5919514156
H        4.2156655385   -3.2267602630   -0.4128736988
H        5.1405637358   -0.7461094600   -3.0511244948
30   

C       -1.3380469536    0.7476003292    0.8333691060
C       -0.5734020978    1.2320431403   -0.2323409903
C       -0.9008922889   -0.3694447405    1.5513070903
C        5.9911135832    0.9683632035    0.5318800297
C        0.6306379848    0.6048018914   -0.5737384607
C        0.3028590235   -0.9946795851    1.2075947785
C        5.8052594503    0.3605675418   -0.7046387996
C        5.0193955501    0.8227192044    1.5144808294
C        1.0910485077   -0.4983622295    0.1556522339
C        3.6456737061   -0.5101658929    0.0090855299
C        4.6580299675   -0.3892401462   -0.9783644937
C        3.8538679342    0.0933301073    1.2712773236
C        2.3503728990   -1.1873814446   -0.2767086218
C        4.1722090395   -2.2800764397   -2.4165858462
C        3.4606932554   -3.0606567828   -1.3107614538
N        2.2426174679   -2.3703384637   -0.8363697978
N        4.5718631089   -0.9773738221   -2.2419129049
O        4.4438355678   -2.8013426020   -3.4867845620
F        2.9551299666   -0.0263253915    2.2750845417
H       -2.2719231375    1.2312602940    1.0969249467
H       -0.9163232994    2.0903233160   -0.7988826855
H       -1.4967613241   -0.7565166409    2.3700071822
H        6.8889446294    1.5446280815    0.7297917865
H        1.2109173060    0.9777251919   -1.4107908285
H        0.6310323970   -1.8716966122    1.7547852518
H        6.5732120298    0.4679158851   -1.4620067349
H        5.1576516427    1.2816196363    2.4862551433
H        3.1853740911   -4.0407735634   -1.7101174073
H        4.1547785662   -3.2255361705   -0.4819503420
H        5.1561257570   -0.6492921253   -3.0001727975
30   

C       -1.3592749068    0.7318419008    0.7412242811
C       -0.7068292931    0.9999054376   -0.4659944251
C       -0.8052308183   -0.1813033154    1.6432803866
C        6.0146306583    0.8814944819    0.6285552828
C        0.5047877718    0.3655113329   -0.7641132626
C        0.4053396823   -0.8158703803    1.3427877135
C        5.8049773435    0.3500816248   -0.6381873727
C        5.0630990112    0.6724381847    1.6186497152
C        1.0873620597   -0.5235980986    0.1491803092
C        3.6572194063   -0.5665734835    0.0614889492
C        4.6532705733   -0.3838320304   -0.9346543680
C        3.8929847548   -0.0423813801    1.3542817260
C        2.3549684202   -1.2225114471   -0.2563019269
C        4.1617301438   -2.1933317450   -2.4691926688
C        3.4562551912   -3.0332186117   -1.4038408363
N        2.2406249600   -2.3635740834   -0.8955540571
N        4.5483722992   -0.8970854668   -2.2291715015
O        4.4305492394   -2.6553607529   -3.5669734322
F        3.0214700276   -0.2253759483    2.3700741445
H       -2.2983065868    1.2221150465    0.9722740806
H       -1.1425793666    1.6946794822   -1.1749725749
H       -1.3169019371   -0.4049824224    2.5724362951
H        6.9154451457    1.4468004839    0.8437491871
H        0.9968009867    0.5658049429   -1.7098824109
H        0.8150383652   -1.5431629193    2.0349300279
H        6.5579861097    0.5049132890   -1.4023127374
H        5.2211235883    1.0701107327    2.6141018397
H        3.1785326972   -3.9905414957   -1.8536168529
H        4.1523889245   -3.2406738692   -0.5863900662
H        5.1221276331   -0.5236741242   -2.9743628031
30   

C       -1.3743970836    0.7201333744    0.6212068274
C       -0.8269916530    0.7175825742   -0.6641986223
C       -0.7135383400    0.0563253384    1.6581027091
C        6.0545269382    0.7935919269    0.6739118619
C        0.3906604434    0.0718642845   -0.9058593123
C        0.5029351703   -0.5924068560    1.4155188856
C        5.7823846613    0.3795258824   -0.6233708513
C        5.1635705990    0.4708535370    1.6887076192
C        1.0926369648   -0.5527874913    0.1381022851
C        3.6785600564   -0.6269425460    0.0971031487
C        4.6244399795   -0.3417721300   -0.9250472337
C        3.9881591848   -0.2346311105    1.4209566896
C        2.3643464633   -1.2594825517   -0.2413071938
C        4.1225864979   -2.0491745174   -2.5601883116
C        3.4617493622   -2.9720018920   -1.5344459312
N        2.2481147392   -2.3500314925   -0.9646578691
N        4.4684072271   -0.7557626900   -2.2495802360
O        4.3757682903   -2.4334238536   -3.6911814801
F        3.1949323828   -0.5432698566    2.4662206085
H       -2.3176391046    1.2204844122    0.8096304666
H       -1.3480123936    1.2110213903   -1.4768039184
H       -1.1510440447    0.0304705724    2.6496524832
H        6.9594328307    1.3505740069    0.8936262250
H        0.7993282040    0.0621728322   -1.9109228097
H        0.9566796656   -1.1508405122    2.2236025613
H        6.4927106943    0.6136022906   -1.4079378827
H        5.3757031314    0.7686772320    2.7086819862
H        3.1883139613   -3.9034160403   -2.0379981773
H        4.1799701050   -3.2168083220   -0.7469318938
H        5.0060077936   -0.3171673157   -2.9861446157
30   

C       -1.3458382671    0.7959202708    0.5082960412
C       -0.9576426348    0.4088281431   -0.7749685203
C       -0.5348422674    0.4816304697    1.6001885142
C        6.0158775545    0.6980436103    0.7980735986
C        0.2400330362   -0.2886128289   -0.9646328797
C        0.6641970449   -0.2164865148    1.4125014762
C        5.6760394375    0.4816412995   -0.5327106213
C        5.2211465627    0.1509671558    1.7996855377
C        1.0719711900   -0.6146682061    0.1226275039
C        3.6612515128   -0.7072596182    0.1432063242
C        4.5313206642   -0.2423837837   -0.8736654975
C        4.0626546964   -0.5657055729    1.4884947594
C        2.3452140741   -1.3322541737   -0.2156694625
C        4.0592044526   -1.8166800217   -2.6328162061
C        3.4896683656   -2.8691031161   -1.6721309718
N        2.2593760019   -2.3677285227   -1.0220956728
N        4.3262836711   -0.5285081114   -2.2246206467
O        4.2973319799   -2.0876164793   -3.7993733080
F        3.3864888083   -1.1567091599    2.4965090425
H       -2.2743067001    1.3358845784    0.6565715807
H       -1.5839741763    0.6480811526   -1.6269046126
H       -0.8366229618    0.7765808509    2.5988383402
H        6.9096475233    1.2591462498    1.0504934223
H        0.5238974404   -0.5773128560   -1.9715509708
H        1.2382476796   -0.4438806796    2.2957867444
H        6.3271667542    0.8616444456   -1.3114873129
H        5.5031821777    0.2697957223    2.8390442458
H        3.2544754088   -3.7688401982   -2.2474816316
H        4.2452990472   -3.1370336396   -0.9281606963
H        4.8088579003    0.0042949364   -2.9367033212
30   

C       -1.3583010802    0.8060426647    0.4889812780
C       -1.1130560034    0.1681458705   -0.7270633727
C       -0.3954311181    0.7618107069    1.4977610919
C        6.0116335798    0.6151632990    0.9010696941
C        0.0869787650   -0.5221218164   -0.9290982367
C        0.8067476976    0.0732344357    1.2972509819
C        5.6853280684    0.4838752306   -0.4452485201
C        5.1987026278    0.0182012110    1.8602385213
C        1.0590044750   -0.6080423121    0.0866607032
C        3.6489236996   -0.7110058632    0.1371393470
C        4.5360637975   -0.2040492102   -0.8410786785
C        4.0347450245   -0.6617075073    1.4921716455
C        2.3335954269   -1.3137094197   -0.2598973565
C        4.0788736744   -1.6965142150   -2.6696725037
C        3.5100331241   -2.7916470579   -1.7552232084
N        2.2687940163   -2.3284918630   -1.0962153640
N        4.3453750132   -0.4267754257   -2.2054325106
O        4.3231130221   -1.9183382933   -3.8453465674
F        3.3257858773   -1.3032726155    2.4492301512
H       -2.2887479954    1.3401007924    0.6460297234
H       -1.8517399182    0.2088997161   -1.5195590069
H       -0.5767140959    1.2683806648    2.4389754122
H        6.9099291692    1.1473792420    1.1963992449
H        0.2499501570   -0.9956770932   -1.8917635713
H        1.5205585800    0.0983974126    2.1053565580
H        6.3515816696    0.8982140356   -1.1931243528
H        5.4705265479    0.0688775718    2.9078538692
H        3.2886314570   -3.6701285715   -2.3676722652
H        4.2616318839   -3.0826493863   -1.0158456802
H        4.8346336034    0.1363346718   -2.8890406503
30   

C       -1.3837061849    0.7697468849    0.5318231054
C       -1.2454999703   -0.0564580100   -0.5830841033
C       -0.3050453771    0.9428744610    1.3987276335
C        6.0134966426    0.5398648440    0.9952315065
C       -0.0368606442   -0.7195874896   -0.8227335962
C        0.9053120697    0.2818838311    1.1602025313
C        5.7267362304    0.4464517863   -0.3634771156
C        5.1503740714   -0.0470351725    1.9160632679
C        1.0542852004   -0.5929591113    0.0599327243
C        3.6412978568   -0.7031096428    0.1279889030
C        4.5717413933   -0.1993558300   -0.8108655967
C        3.9791821218   -0.6827676689    1.4966294733
C        2.3300522376   -1.2797451729   -0.3125517803
C        4.1329407726   -1.6317355819   -2.6897660580
C        3.5281948702   -2.7392381064   -1.8149552636
N        2.2782578117   -2.2776217259   -1.1710955197
N        4.4159141761   -0.3817576687   -2.1851793555
O        4.3999195123   -1.8282941713   -3.8650143150
F        3.1997102340   -1.2942487640    2.4193063798
H       -2.3206376704    1.2830356119    0.7170361473
H       -2.0748888869   -0.1832024573   -1.2696844857
H       -0.4017319481    1.5996633474    2.2558304086
H        6.9172636083    1.0383929954    1.3300645883
H        0.0303998702   -1.3401412053   -1.7101357216
H        1.7139282398    0.4877999492    1.8457824906
H        6.4280958029    0.8571342990   -1.0806632984
H        5.3855348983   -0.0197210602    2.9734170039
H        3.3098972518   -3.5998171423   -2.4533565775
H        4.2591574184   -3.0581204819   -1.0664802905
H        4.9336666148    0.1892895797   -2.8406378642
30   

C       -1.3959398589    0.7308826784    0.5957927564
C       -1.3379382159   -0.2479790640   -0.3956869269
C       -0.2357955300    1.0820882022    1.2850224622
C        6.0054983107    0.4600400086    1.0702629171
C       -0.1262386659   -0.8839998042   -0.6885068288
C        0.9769413564    0.4479922626    0.9929780254
C        5.7684874430    0.3927538738   -0.2995016769
C        5.0854216825   -0.1021559756    1.9499692163
C        1.0523946150   -0.5748946119    0.0188859514
C        3.6319643123   -0.6998571357    0.0949870440
C        4.6115393898   -0.2088988390   -0.8008877074
C        3.9111407256   -0.6928465919    1.4777064362
C        2.3251406760   -1.2411842249   -0.3933222778
C        4.1878510459   -1.5711623658   -2.7363938495
C        3.5281729832   -2.6843243104   -1.9122698156
N        2.2747767763   -2.2101076746   -1.2848619522
N        4.4983234090   -0.3492088254   -2.1841578417
O        4.4826486761   -1.7407028698   -3.9092023284
F        3.0601389414   -1.2593832096    2.3651809668
H       -2.3351222642    1.2235212242    0.8212715005
H       -2.2331129616   -0.5152950690   -0.9457365212
H       -0.2715590791    1.8564787385    2.0428861073
H        6.9114578057    0.9241388451    1.4461779602
H       -0.1286500028   -1.6295082228   -1.4765759380
H        1.8500082118    0.7906295682    1.5311219986
H        6.5092229748    0.7914635639   -0.9830903793
H        5.2753362255   -0.0871773649    3.0166600487
H        3.3037925362   -3.5189478879   -2.5822306941
H        4.2300744742   -3.0461171739   -1.1555731591
H        5.0534755564    0.2243193012   -2.8059827058
30   

C       -1.3921550466    0.6951929325    0.6659396504
C       -1.3800380930   -0.4103901917   -0.1848399405
C       -0.1886308265    1.1981063717    1.1601718160
C        5.9903113613    0.3835185137    1.1511350915
C       -0.1686602618   -1.0188420997   -0.5330618207
C        1.0232129770    0.5912676565    0.8125590438
C        5.8114163468    0.3296529999   -0.2278460808
C        5.0107832319   -0.1430169769    1.9869958655
C        1.0564389666   -0.5485410046   -0.0233314457
C        3.6261316705   -0.6973844874    0.0657491627
C        4.6576986731   -0.2288435006   -0.7841493480
C        3.8387578692   -0.6908233452    1.4612236666
C        2.3243245580   -1.1945799769   -0.4736934371
C        4.2491126385   -1.5203700260   -2.7753779812
C        3.5208093299   -2.6291473441   -2.0080318732
N        2.2680654636   -2.1301599007   -1.3995686734
N        4.5946651662   -0.3325944681   -2.1739682407
O        4.5751538882   -1.6660467055   -3.9430996397
F        2.9232313690   -1.2123929494    2.3109432900
H       -2.3312196112    1.1664203759    0.9336728023
H       -2.3112597023   -0.7984528895   -0.5817595366
H       -0.1914787094    2.0672720135    1.8081059976
H        6.8944315943    0.8142439933    1.5688828466
H       -0.2046653721   -1.8703475103   -1.2042797100
H        1.9330479231    1.0388855584    1.1922447399
H        6.5936634723    0.7086317540   -0.8754869652
H        5.1504452715   -0.1317717970    3.0614873628
H        3.2853967822   -3.4329264170   -2.7111108118
H        4.1854305711   -3.0419797855   -1.2438694191
H        5.1931439943    0.2355715697   -2.7594773362
