15   
Generated by ForceBalance from scan.xyz: Frame 1 of 24
C       -0.6625666676    0.5031842438   -1.5751560424
C       -3.3609776390    2.4262060269   -3.2183615641
C       -3.9314630476    1.0642041364   -2.8377104454
C       -2.4475261554    1.2715096283   -2.9440148126
C       -0.0037659463    0.7083404569   -0.2321790917
O       -0.3068947777   -0.2946456954   -2.4196441950
O       -1.7180255561    1.3482477653   -1.7206745156
H       -3.4544980689    2.7705819987   -4.2439947192
H       -3.4070520485    3.2056965328   -2.4642582771
H       -4.3419089163    0.9672489403   -1.8373896095
H       -4.4188467541    0.4611498679   -3.5981579243
H       -1.8932526346    0.8034171699   -3.7480445896
H        0.3466733038    1.7405969977   -0.1412964239
H        0.8351356106    0.0204396839   -0.1313333016
H       -0.7274073868    0.5358276066    0.5698227255
15   
Generated by ForceBalance from scan.xyz: Frame 2 of 24
C       -0.6130013726    0.5367970324   -1.6045446226
C       -3.3032862227    2.4006992192   -3.2501704994
C       -3.9847321899    1.1066465184   -2.8211389448
C       -2.4891205472    1.1844685263   -2.9220543958
C        0.0000311685    0.6950160605   -0.2337220289
O       -0.1399681473   -0.1134482779   -2.5157152845
O       -1.7792613893    1.2303969094   -1.6849435267
H       -3.3628621865    2.7102137511   -4.2894783237
H       -3.2872239015    3.2107739332   -2.5277149233
H       -4.4072283397    1.0819181830   -1.8214778604
H       -4.5167249248    0.5175554899   -3.5624394028
H       -1.9627863813    0.6465413041   -3.7003492739
H        0.1951039456    1.7521569963   -0.0311080139
H        0.9299568740    0.1292889744   -0.1854685373
H       -0.6954703748    0.3372409037    0.5310243992
15   
Generated by ForceBalance from scan.xyz: Frame 3 of 24
C       -0.5835485715    0.5896306885   -1.6201183388
C       -3.2391624060    2.3695403567   -3.2729226920
C       -4.0242495249    1.1523056404   -2.8005072703
C       -2.5286786446    1.1015675834   -2.8937612966
C        0.0005065176    0.6880908269   -0.2311997967
O       -0.0245346831    0.1091469473   -2.5862011794
O       -1.8375169189    1.1139274965   -1.6454212757
H       -3.2687050614    2.6438550453   -4.3233927062
H       -3.1584295171    3.2015565642   -2.5803191442
H       -4.4515802675    1.1991020484   -1.8037111712
H       -4.6005304323    0.5821090724   -3.5231606685
H       -2.0410648731    0.5007004246   -3.6510100116
H        0.0438458070    1.7352616923    0.0823178216
H        1.0012531294    0.2572451266   -0.2277975696
H       -0.6373927069    0.1581995015    0.4820958207
15   
Generated by ForceBalance from scan.xyz: Frame 4 of 24
C       -0.5746971125    0.6555938451   -1.6320647001
C       -3.1687208032    2.3298342378   -3.2954768561
C       -4.0523262595    1.1991642425   -2.7841613949
C       -2.5676383593    1.0196108827   -2.8696334025
C       -0.0018972477    0.6841922636   -0.2353810094
O        0.0377913924    0.3634086905   -2.6397376408
O       -1.8912199969    0.9971252048   -1.6138458027
H       -3.1732022709    2.5689859191   -4.3548397849
H       -3.0183535288    3.1754460820   -2.6315015035
H       -4.4758590352    1.3147114746   -1.7913672498
H       -4.6734450909    0.6552005661   -3.4895375239
H       -2.1307470076    0.3595568217   -3.6089141982
H       -0.1029944762    1.6874282085    0.1890474090
H        1.0491252695    0.3989639343   -0.2688814272
H       -0.5556719822   -0.0026384289    0.4112009355
15   
Generated by ForceBalance from scan.xyz: Frame 5 of 24
C       -0.5880943342    0.7200893558   -1.6381405516
C       -3.0925474092    2.2800197852   -3.3101563636
C       -4.0704047026    1.2430478010   -2.7713084952
C       -2.6076135170    0.9347462857   -2.8491525063
C       -0.0079522497    0.6836723101   -0.2448366351
O        0.0448891006    0.6209180193   -2.6697475542
O       -1.9403308135    0.8708875972   -1.5907103589
H       -3.0749502366    2.4905909501   -4.3752518828
H       -2.8695670172    3.1267728260   -2.6683998727
H       -4.4829760372    1.4190683540   -1.7828101138
H       -4.7355037256    0.7365883114   -3.4642833983
H       -2.2310132324    0.2241097404   -3.5759124504
H       -0.2412058194    1.6143640363    0.2808231953
H        1.0718749222    0.5511344111   -0.3046923589
H       -0.4545551371   -0.1355530066    0.3260262937
15   
Generated by ForceBalance from scan.xyz: Frame 6 of 24
C       -0.6127749219    0.7815249851   -1.6419269030
C       -3.0145565304    2.2249708937   -3.3194845741
C       -4.0757372563    1.2870050686   -2.7567718178
C       -2.6456630102    0.8520301632   -2.8377743858
C       -0.0204498652    0.6910067033   -0.2563141720
O        0.0153383541    0.8714152608   -2.6766976855
O       -1.9739269541    0.7384473738   -1.5859101308
H       -2.9835005346    2.4133803269   -4.3882078133
H       -2.7136113797    3.0609319146   -2.6957725796
H       -4.4636987647    1.5139075512   -1.7686458235
H       -4.7873194568    0.8277400710   -3.4362919300
H       -2.3400300446    0.1022339166   -3.5599937320
H       -0.3753054784    1.5249311019    0.3565711733
H        1.0667755292    0.7152298969   -0.3238055389
H       -0.3447655890   -0.2334700666    0.2301767865
15   
Generated by ForceBalance from scan.xyz: Frame 7 of 24
C       -0.6398597460    0.8356537860   -1.6439457874
C       -2.9465212277    2.1633716375   -3.3326669552
C       -4.0700517680    1.3255258045   -2.7336071846
C       -2.6814821494    0.7732343003   -2.8380847535
C       -0.0411606095    0.6908723135   -0.2654670873
O       -0.0295071106    1.1100619855   -2.6558634420
O       -1.9841401232    0.6035914202   -1.6072045467
H       -2.9197200796    2.3320365402   -4.4045835448
H       -2.5641652172    2.9818213924   -2.7312378528
H       -4.4145622884    1.5965188914   -1.7404323443
H       -4.8323272254    0.9151513747   -3.3890851770
H       -2.4603701173   -0.0062976032   -3.5610036345
H       -0.4995714889    1.4116734759    0.4181403669
H        1.0342158610    0.8586682706   -0.3169074415
H       -0.2458111040   -0.3087383510    0.1287410540
15   
Generated by ForceBalance from scan.xyz: Frame 8 of 24
C       -0.6587390562    0.8995763726   -1.6362444999
C       -2.8936175404    2.1089522073   -3.3642093388
C       -4.0481537359    1.3692281622   -2.6992728791
C       -2.7062459767    0.7156152965   -2.8467365540
C       -0.0647594906    0.6885869198   -0.2637048273
O       -0.0733236700    1.3536820744   -2.5962308139
O       -1.9626524730    0.4932300646   -1.6519858963
H       -2.8971044622    2.2481851213   -4.4406459413
H       -2.4310798211    2.9145151105   -2.8045824994
H       -4.3274941137    1.6865219982   -1.6992517478
H       -4.8661784135    0.9971662054   -3.3090284176
H       -2.5820200778   -0.0908576007   -3.5639339892
H       -0.6151847834    1.2780069112    0.4756528790
H        0.9833270204    0.9864508263   -0.2717711676
H       -0.1535796064   -0.3625855027    0.0253640304
15   
Generated by ForceBalance from scan.xyz: Frame 9 of 24
C       -0.6742770953    0.9749292036   -1.6090680382
C       -2.8664403961    2.0620449314   -3.4205853216
C       -4.0162386635    1.4148605343   -2.6584029624
C       -2.7205263842    0.6818397384   -2.8557445541
C       -0.0864820477    0.6744888560   -0.2497863927
O       -0.1244225146    1.6042139823   -2.4875550246
O       -1.9177246102    0.4187921436   -1.7079692139
H       -2.9272652123    2.1521372839   -4.5007694128
H       -2.3349916710    2.8686480590   -2.9306261953
H       -4.2141210741    1.7888862405   -1.6583954734
H       -4.8902870403    1.0618170031   -3.1979265634
H       -2.6958682812   -0.1544644273   -3.5487343271
H       -0.7111292779    1.1162359835    0.5323361602
H        0.9231421273    1.0804232262   -0.1932720089
H       -0.0668614663   -0.4058662069   -0.0803443301
15   
Generated by ForceBalance from scan.xyz: Frame 10 of 24
C       -0.7017665228    1.0667406511   -1.5561214346
C       -2.8617647627    2.0139894737   -3.5143947827
C       -3.9786930738    1.4705700346   -2.6330720479
C       -2.7282212793    0.6684901955   -2.8631332991
C       -0.0936444531    0.6379571642   -0.2398826017
O       -0.2163322461    1.8779488040   -2.3159542691
O       -1.8691152365    0.3914959504   -1.7588234941
H       -2.9978994989    2.0216885598   -4.5919228340
H       -2.2718435243    2.8335515746   -3.1272930546
H       -4.0883656738    1.9230097813   -1.6518818337
H       -4.9035918201    1.1199554364   -3.0819959532
H       -2.7957159747   -0.2091108375   -3.4992197591
H       -0.7711050772    0.8865339853    0.5824237528
H        0.8616250365    1.1433573208   -0.1006719501
H        0.0497127818   -0.4462497411   -0.2284558129
15   
Generated by ForceBalance from scan.xyz: Frame 11 of 24
C       -0.7616939553    1.1690276177   -1.4600759625
C       -2.8412458928    1.9509276729   -3.6286601469
C       -3.9283603135    1.5486688761   -2.6428241609
C       -2.7297123784    0.6650907889   -2.8549697861
C       -0.0625223208    0.5882564740   -0.2509579535
O       -0.4077413086    2.1689761723   -2.0503204752
O       -1.8399112914    0.4005284885   -1.7698020594
H       -3.0420558006    1.8504003997   -4.6918379816
H       -2.1991401397    2.7760827089   -3.3575171548
H       -3.9596665677    2.1018293155   -1.7086071156
H       -4.8933219180    1.2058067845   -3.0050777214
H       -2.8782259616   -0.2617817558   -3.3997084899
H       -0.7452829277    0.5737799111    0.6036687330
H        0.8141475935    1.1913937228   -0.0164280089
H        0.2348557060   -0.4453559929   -0.4495502551
15   
Generated by ForceBalance from scan.xyz: Frame 12 of 24
C       -0.8482820501    1.2185105515   -1.3646838495
C       -2.7845428257    1.8763835514   -3.7084781152
C       -3.8636523489    1.6303028211   -2.6641054637
C       -2.7383410115    0.6476991857   -2.8366442596
C       -0.0137368687    0.5542373251   -0.2923947775
O       -0.6676157729    2.3449162321   -1.7831144117
O       -1.8326530838    0.3756782201   -1.7643453714
H       -3.0269720282    1.6994660381   -4.7531710935
H       -2.0873934040    2.6791762342   -3.5206727058
H       -3.8217640522    2.2616349591   -1.7816524756
H       -4.8623688841    1.3332109151   -2.9709839268
H       -2.9693573849   -0.3031996140   -3.3044084695
H       -0.6482612035    0.2658731883    0.5506039059
H        0.7601815939    1.2443918154    0.0424186643
H        0.4432327125   -0.3585135492   -0.6856164164
15   
Generated by ForceBalance from scan.xyz: Frame 13 of 24
C       -0.9535718422    1.2218593053   -1.2901556086
C       -2.7637253570    1.7989955162   -3.7414576006
C       -3.8286590539    1.6672364176   -2.6602409158
C       -2.7718042917    0.6095001101   -2.8158646377
C       -0.0154916355    0.5562108167   -0.3089344745
O       -0.9341724620    2.4032384063   -1.5774846170
O       -1.8314559690    0.3140042124   -1.7789714162
H       -3.0402069620    1.5943633312   -4.7725656369
H       -2.0218660352    2.5713620667   -3.6007515319
H       -3.7260739014    2.3430358599   -1.8177860147
H       -4.8497908549    1.4147619063   -2.9315120852
H       -3.0740043539   -0.3430117218   -3.2363308804
H       -0.5877574390    0.0996054468    0.5038407249
H        0.6737178769    1.2986369400    0.0924909743
H        0.5421213732   -0.2427155878   -0.8061753992
15   
Generated by ForceBalance from scan.xyz: Frame 14 of 24
C       -1.0056816582    1.2143904746   -1.2419362013
C       -2.7395751740    1.7501914371   -3.7645454926
C       -3.7803352823    1.7036827215   -2.6487915629
C       -2.7784951263    0.5939149425   -2.8024511438
C       -0.0093675283    0.5619100741   -0.3111483077
O       -1.1034864586    2.4126022568   -1.4273483495
O       -1.7804598641    0.2724719249   -1.8287549702
H       -3.0486777734    1.5387489664   -4.7847359723
H       -1.9597605101    2.4916227130   -3.6566015445
H       -3.6315797964    2.4100462948   -1.8410526362
H       -4.8157556772    1.4784546131   -2.8887978015
H       -3.1419906918   -0.3532973034   -3.1842822954
H       -0.5358754971   -0.0139224775    0.4555627219
H        0.6046445460    1.3307454107    0.1570462290
H        0.6232092129   -0.1352804381   -0.8680972099
15   
Generated by ForceBalance from scan.xyz: Frame 15 of 24
C       -1.0408541378    1.2112345794   -1.2048788726
C       -2.7438958778    1.7125505427   -3.8018505767
C       -3.7493561177    1.7338413548   -2.6497133628
C       -2.7804425929    0.5945082187   -2.7996754675
C       -0.0125127659    0.5605383997   -0.3084502670
O       -1.2316954621    2.4095295852   -1.2905273131
O       -1.7137649827    0.2674671594   -1.9039347391
H       -3.0858902779    1.4894432275   -4.8086535874
H       -1.9380776519    2.4327340919   -3.7308127343
H       -3.5692360729    2.4716709250   -1.8795700700
H       -4.7934914016    1.5117265641   -2.8529923310
H       -3.1876285091   -0.3525023525   -3.1355370555
H       -0.5069581860   -0.1071975386    0.4031817608
H        0.5393990698    1.3321384479    0.2275952705
H        0.6747225935   -0.0465996018   -0.9046080945
15   
Generated by ForceBalance from scan.xyz: Frame 16 of 24
C       -1.0781817859    1.2171054913   -1.1387707479
C       -2.7631413732    1.6803485982   -3.8405261180
C       -3.7264719959    1.7854389222   -2.6571571686
C       -2.7872353470    0.6174375269   -2.7818114680
C       -0.0118487440    0.5509804048   -0.2994392294
O       -1.3580730740    2.3997601417   -1.0969348769
O       -1.6595394217    0.3085133131   -1.9576667631
H       -3.1406750943    1.4274725421   -4.8271212614
H       -1.9308598364    2.3758131732   -3.8247730003
H       -3.5162140192    2.5584153969   -1.9322997270
H       -4.7782347101    1.5643185609   -2.8188954989
H       -3.2298448425   -0.3348903735   -3.0523813615
H       -0.4624333232   -0.2194644289    0.3331995578
H        0.4806419757    1.2997049144    0.3204209122
H        0.7203396194    0.0578278434   -0.9451500167
15   
Generated by ForceBalance from scan.xyz: Frame 17 of 24
C       -1.1344482185    1.2118695071   -1.0403384389
C       -2.7691940733    1.6204524664   -3.8978391728
C       -3.6902654146    1.8495271730   -2.7033905958
C       -2.7964313162    0.6392736772   -2.7613000436
C        0.0159456376    0.5485437405   -0.3167182025
O       -1.5328754986    2.3387257767   -0.8215694227
O       -1.6318082927    0.3679184057   -1.9785245445
H       -3.1804250237    1.3141434824   -4.8553346242
H       -1.9032617635    2.2730228588   -3.9553013813
H       -3.4346220538    2.6586661274   -2.0356655056
H       -4.7530347404    1.6554417026   -2.8220305340
H       -3.2770096900   -0.3158590413   -2.9448791121
H       -0.3341744976   -0.3543097089    0.1921872014
H        0.4366864597    1.2449555053    0.4080750870
H        0.7839355557    0.2435959637   -1.0333036234
15   
Generated by ForceBalance from scan.xyz: Frame 18 of 24
C       -1.1335894648    0.5248859196   -1.2371992786
C       -3.5349610034    2.2848352801   -2.8847421678
C       -3.5169048068    0.7983614181   -3.1978717618
C       -2.2331852447    1.5847930858   -3.1710969984
C        0.0227164997    0.8122809746   -0.3052553926
O       -1.8554274119   -0.4482876018   -1.1649374552
O       -1.2318868654    1.5240888267   -2.1547373104
H       -3.9139213222    2.9911075068   -3.6179383436
H       -3.7142585484    2.5594088050   -1.8492777878
H       -3.7192764006    0.1105448636   -2.3899107184
H       -3.8537482668    0.4711692311   -4.1778230457
H       -1.7447829942    1.7874971456   -4.1187447676
H        0.9471441355    0.9295933400   -0.8777588547
H        0.1243210290   -0.0059202418    0.4071862495
H       -0.1532226447    1.7512091080    0.2279934815
15   
Generated by ForceBalance from scan.xyz: Frame 19 of 24
C       -1.0411639550    0.4634921482   -1.3668725467
C       -3.5002718900    2.3499531240   -2.9230792687
C       -3.5481171850    0.8419171991   -3.0559923807
C       -2.2373511060    1.5690642361   -3.1840549556
C       -0.0500884552    0.8074477682   -0.2782863366
O       -1.5620850265   -0.6212121041   -1.5183412131
O       -1.2453551398    1.5554797493   -2.1586537017
H       -3.8902964214    2.9762368500   -3.7205272639
H       -3.6099974183    2.7614223840   -1.9240495453
H       -3.7223764305    0.2592190098   -2.1613986116
H       -3.9554130853    0.4062519981   -3.9637729124
H       -1.7713646291    1.6344766518   -4.1623296639
H        0.8786502587    1.1792668116   -0.7203452711
H        0.1501611811   -0.0791888298    0.3226437996
H       -0.4526026962    1.6043760269    0.3540502323
15   
Generated by ForceBalance from scan.xyz: Frame 20 of 24
C       -0.9666744075    0.4583805523   -1.4442125008
C       -3.4901060876    2.3840477918   -2.9932836732
C       -3.5654423130    0.8712295091   -2.9628321245
C       -2.2433748495    1.5568462483   -3.1635846060
C       -0.0679651232    0.7734443359   -0.2712579453
O       -1.3364118803   -0.6500354228   -1.7679097172
O       -1.2948693532    1.6105018063   -2.1005814950
H       -3.8673147247    2.9226323153   -3.8579620874
H       -3.5938931545    2.9072258772   -2.0475060473
H       -3.7412630064    0.3938913812   -2.0061695765
H       -3.9855243203    0.3423517163   -3.8128867429
H       -1.7634074210    1.5012398952   -4.1360528666
H        0.8231677648    1.3064889689   -0.6149435951
H        0.2191654598   -0.1530575256    0.2251952994
H       -0.5891210540    1.4290366093    0.4327118218
15   
Generated by ForceBalance from scan.xyz: Frame 21 of 24
C       -0.9048538125    0.4629058941   -1.4884570162
C       -3.4846588824    2.4067634024   -3.0618640969
C       -3.6137501722    0.9018534213   -2.9094673864
C       -2.2664060613    1.5295789640   -3.1205891917
C       -0.0592054023    0.7398984300   -0.2683261830
O       -1.1355710951   -0.6326212238   -1.9548014178
O       -1.3753818399    1.6325208983   -2.0131319953
H       -3.8178683411    2.8782897592   -3.9817535531
H       -3.6039167565    3.0106268302   -2.1675620050
H       -3.8284203157    0.5158789513   -1.9186208349
H       -4.0290749735    0.3166786095   -3.7239642791
H       -1.7525032474    1.3725457052   -4.0642026106
H        0.7721167896    1.4003386051   -0.5315962544
H        0.3228685199   -0.1996396699    0.1298437689
H       -0.6559555111    1.2533811091    0.4913680389
15   
Generated by ForceBalance from scan.xyz: Frame 22 of 24
C       -0.8448242753    0.4692610665   -1.5124485520
C       -3.4708158026    2.4244210652   -3.1175563142
C       -3.6885355931    0.9373814972   -2.8808662268
C       -2.3035047928    1.4854794484   -3.0677658122
C       -0.0406590079    0.7219282670   -0.2599750502
O       -0.9308332176   -0.5903791300   -2.0974041258
O       -1.4687907722    1.6118126359   -1.9197004407
H       -3.7402828489    2.8511198699   -4.0790620278
H       -3.6004668452    3.0877126100   -2.2680085574
H       -3.9630651064    0.6296797617   -1.8768143279
H       -4.1027869113    0.3259764928   -3.6765206505
H       -1.7560291061    1.2416188062   -3.9727361654
H        0.7038439447    1.5018379129   -0.4446716453
H        0.4536292255   -0.1994757414    0.0464928086
H       -0.6962190968    1.0789256553    0.5398065890
15   
Generated by ForceBalance from scan.xyz: Frame 23 of 24
C       -0.7845434795    0.4697672666   -1.5277094293
C       -3.4451963808    2.4315481481   -3.1575793202
C       -3.7754013577    0.9723372418   -2.8657745803
C       -2.3504238746    1.4208054093   -3.0161271859
C       -0.0213335168    0.7124451665   -0.2480506604
O       -0.7207464190   -0.5322449619   -2.2101955468
O       -1.5627541285    1.5451494734   -1.8344792365
H       -3.6469756509    2.8295077468   -4.1475015581
H       -3.5678646789    3.1390919872   -2.3435246765
H       -4.1111939568    0.7337832288   -1.8614106046
H       -4.1997472827    0.3563434631   -3.6527101568
H       -1.7813449814    1.1018083960   -3.8825893711
H        0.6132259765    1.5972852932   -0.3533025369
H        0.5910124966   -0.1593453708   -0.0195558101
H       -0.7185519696    0.9056251462    0.5725125798
15   
Generated by ForceBalance from scan.xyz: Frame 24 of 24
C       -0.7200780473    0.4766544894   -1.5518783717
C       -3.4051004384    2.4331065902   -3.1918568132
C       -3.8579320354    1.0156452303   -2.8563620825
C       -2.3980760147    1.3470931381   -2.9783928917
C       -0.0060947326    0.7091093722   -0.2421226715
O       -0.5061264044   -0.4405145049   -2.3188295576
O       -1.6439990067    1.4512612072   -1.7725647655
H       -3.5467057165    2.8064364604   -4.2016235644
H       -3.4979091041    3.1784005301   -2.4080916102
H       -4.2401757176    0.8462518731   -1.8545471312
H       -4.3084076730    0.4046447129   -3.6329105178
H       -1.8282388109    0.9528192307   -3.8114926261
H        0.4930068313    1.6824151561   -0.2557507573
H        0.7257684939   -0.0821422248   -0.0825605392
H       -0.7277068164    0.7224444739    0.5799536234
