29   

C        1.1735141940   -1.0430871938    0.1871496486
C        1.5364101009   -2.1907273044    0.8944723114
C        1.0113908281    0.1672023041    0.8653455947
C        1.7287850741   -2.1274451209    2.2787815817
C        1.1990891881    0.2266912025    2.2516289354
C        1.9379951215   -0.1094606351    6.4308593203
C        2.8814844763   -1.1665969364    6.1929703774
C        1.5456482936   -0.9249430503    2.9872574947
C        1.2015942392    0.0118984549    5.2870464126
C       -0.0428085619    0.8342774760    5.2069153462
C       -2.2512528823    1.4667323168    4.3097804403
C       -1.4020847031   -0.8451106083    3.9423603170
N        2.7111632329   -1.6405777523    4.9863521468
N        1.7321341875   -0.8968843487    4.3879068174
N       -1.1492288265    0.5154467280    4.4082399974
O       -0.1681579353    1.7764317741    5.9949470229
H        1.0269638244   -1.0904464810   -0.8863234679
H        1.6720484659   -3.1316945773    0.3726001571
H        0.7457464870    1.0638191424    0.3162814388
H        2.0140555510   -3.0244959009    2.8179815671
H        1.0878269269    1.1820976639    2.7504817267
H        1.7867756388    0.4279960075    7.3600814874
H        3.6010286342   -1.5381184954    6.9134360540
H       -2.8576176995    1.2578862792    3.4226904690
H       -1.8685144070    2.4882728586    4.2130588538
H       -2.8856498895    1.4066030118    5.1997042910
H       -2.4542687330   -1.1038412287    4.0980665730
H       -0.8143138844   -1.5775231975    4.5037816465
H       -1.1800017769   -0.9384716422    2.8751520539
29   

C        1.1635406789   -1.0070085386    0.1712592528
C        1.5428112678   -2.1521502628    0.8737014579
C        0.9898841185    0.1988823414    0.8538592009
C        1.7389484129   -2.0910506767    2.2576448789
C        1.1819184583    0.2563904418    2.2394723085
C        1.8372710799   -0.1728149519    6.4583079378
C        2.7839644254   -1.2281910038    6.2219167988
C        1.5437903071   -0.8932917857    2.9715695555
C        1.1649125257    0.0005662406    5.2839304068
C       -0.0354678080    0.8745839356    5.1241344206
C       -2.2612660590    1.4460829573    4.2167448676
C       -1.4208722908   -0.8957632050    4.0226072851
N        2.6732406694   -1.6469088133    4.9874950759
N        1.7287160745   -0.8712500517    4.3734629259
N       -1.1725052737    0.4926536536    4.4006869693
O       -0.0809562703    1.9386467130    5.7490483772
H        1.0134125087   -1.0525138459   -0.9017865007
H        1.6875420040   -3.0897691833    0.3483080387
H        0.7123336978    1.0943604067    0.3087987350
H        2.0352405451   -2.9874623121    2.7918561039
H        1.0643899846    1.2114905236    2.7372040661
H        1.6528245218    0.3395539036    7.3953800411
H        3.4654408939   -1.6354380692    6.9598769755
H       -2.8710260261    1.1656301884    3.3519998561
H       -1.8669809976    2.4499728403    4.0269336882
H       -2.8956806234    1.4742997514    5.1080981567
H       -2.4746124012   -1.1448859132    4.1831795301
H       -0.8373538092   -1.5893497140    4.6357667868
H       -1.1842066629   -1.0573277702    2.9665492615
29   

C        1.1451153142   -0.9750502148    0.1833457106
C        1.5224673178   -2.1154599383    0.8941668037
C        0.9898953804    0.2393566898    0.8545393995
C        1.7333803820   -2.0413807278    2.2754148262
C        1.1979004378    0.3103482120    2.2370193143
C        1.7897313713   -0.1638659369    6.4899611966
C        2.7239302877   -1.2325318972    6.2604733052
C        1.5558812499   -0.8346724135    2.9794486868
C        1.1735022961    0.0527941478    5.2934849039
C        0.0269390464    0.9823926843    5.0549213552
C       -2.2124016290    1.5260238771    4.1469296907
C       -1.4304790788   -0.8477800683    4.1752690087
N        2.6563220354   -1.6131200903    5.0100743564
N        1.7509629454   -0.8029417044    4.3808963546
N       -1.1542399368    0.5629494893    4.4314308322
O        0.0913661450    2.1411820182    5.4759504359
H        0.9826416055   -1.0304925957   -0.8874119125
H        1.6536772804   -3.0597405932    0.3772929742
H        0.7149387891    1.1317715261    0.3031271552
H        2.0265964840   -2.9355084793    2.8150063544
H        1.0984144004    1.2749300748    2.7200399153
H        1.5867128222    0.3357939537    7.4297428767
H        3.3684489918   -1.6733596808    7.0122121073
H       -2.7938439809    1.2029840846    3.2775558020
H       -1.7937209934    2.5094627812    3.9091294215
H       -2.8797829466    1.6216735263    5.0088679139
H       -2.4923799329   -1.0583164357    4.3371238177
H       -0.8718627094   -1.4959102565    4.8578253915
H       -1.1774191486   -1.1078008321    3.1427678916
29   

C        1.1773111649   -0.9930115634    0.1561097329
C        1.5429383823   -2.1478557864    0.8491851461
C        1.0553317789    0.2163660271    0.8425367413
C        1.7733707295   -2.0933336426    2.2282887292
C        1.2842011127    0.2682756063    2.2224544511
C        1.8013999655   -0.3658771955    6.4951073782
C        2.7253327090   -1.4383699342    6.2413407238
C        1.6280966516   -0.8917931402    2.9490805330
C        1.2447127771   -0.0707515946    5.2871170736
C        0.1549721515    0.9173344362    5.0037230148
C       -2.0995883653    1.4828038864    4.1269236605
C       -1.3960389939   -0.9097708514    4.3180538325
N        2.7045662554   -1.7441432816    4.9685271096
N        1.8384089579   -0.8837426295    4.3497872294
N       -1.0753152580    0.5052421220    4.4800357367
O        0.3357994361    2.1149169581    5.2399922055
H        0.9987097875   -1.0332187542   -0.9127352141
H        1.6493647387   -3.0884975961    0.3201873965
H        0.7906524577    1.1203646303    0.3051273693
H        2.0558801969   -2.9997072334    2.7528256045
H        1.2143634369    1.2320432939    2.7121892883
H        1.5762923217    0.0905014655    7.4514622148
H        3.3318155802   -1.9332452294    6.9910854770
H       -2.6253282933    1.1638917181    3.2213420566
H       -1.6623400892    2.4639587726    3.9159009893
H       -2.8211908638    1.5860742415    4.9429664005
H       -2.4682654565   -1.0732354022    4.4653568224
H       -0.8753330233   -1.5249967423    5.0587698278
H       -1.1251275702   -1.2504210987    3.3137501768
29   

C        1.2179369747   -0.9999771296    0.1140052414
C        1.5973628231   -2.1452416631    0.8150180291
C        1.0797400558    0.2117895081    0.7926877554
C        1.8244944576   -2.0788806967    2.1941399219
C        1.3060667687    0.2756507392    2.1725443182
C        1.6994851339   -0.4498740511    6.4756780905
C        2.6599449003   -1.4900279565    6.2241748395
C        1.6628859450   -0.8748921477    2.9084011198
C        1.2135677790   -0.1039027503    5.2510641705
C        0.1515225683    0.9037023445    4.9194406818
C       -2.1468732567    1.4452052436    4.1336064150
C       -1.4533063763   -0.9387836840    4.4755799077
N        2.7215892969   -1.7294487324    4.9384901059
N        1.8712832429   -0.8589279695    4.3103314219
N       -1.1169507490    0.4813123201    4.5107415796
O        0.4045305853    2.1100874189    4.9669861610
H        1.0415737183   -1.0491140803   -0.9548062192
H        1.7169569657   -3.0877757295    0.2922999448
H        0.8051384720    1.1093148753    0.2494673408
H        2.1173202147   -2.9791463063    2.7233656302
H        1.2271148308    1.2437281851    2.6514799275
H        1.4164318854   -0.0404417470    7.4376853454
H        3.2342487445   -2.0093608374    6.9826607725
H       -2.2431964434    1.4803231647    3.0439427389
H       -1.9148355810    2.4522401428    4.4939161193
H       -3.1099434304    1.1610278144    4.5688235233
H       -2.5337439623   -1.0802215321    4.5777422720
H       -0.9792449373   -1.4790859670    5.3012527933
H       -1.1324862275   -1.3803550806    3.5265496349
29   

C        1.3474398630   -1.0826108190    0.0207314450
C        1.7223653344   -2.2033863257    0.7620195396
C        1.1817290179    0.1454705966    0.6623019875
C        1.9182586172   -2.0957258421    2.1433916439
C        1.3767371915    0.2501454437    2.0444907878
C        1.6081093823   -0.4676551002    6.3885540237
C        2.6119698798   -1.4727208516    6.1708270480
C        1.7300030789   -0.8738135805    2.8211785122
C        1.1899171973   -0.1014393362    5.1446022832
C        0.1405804474    0.9081074520    4.7721946150
C       -2.2075731282    1.4636745670    4.1837309408
C       -1.5484771194   -0.9058227167    4.6873299977
N        2.7573519837   -1.6754734718    4.8860271574
N        1.9169162870   -0.8176668693    4.2259872598
N       -1.1769031243    0.4993236488    4.5554483065
O        0.4462165882    2.0917545157    4.6070035900
H        1.1962947081   -1.1628952776   -1.0500196594
H        1.8634239771   -3.1587560643    0.2688937488
H        0.9114657292    1.0251910248    0.0886523885
H        2.2090866383   -2.9783693399    2.7023556974
H        1.2818878008    1.2316373911    2.4889969082
H        1.2618119882   -0.0869470522    7.3415138500
H        3.1572701801   -1.9935426938    6.9494256784
H       -2.3404820316    1.4697613826    3.0974293405
H       -1.9470767682    2.4749964391    4.5119225398
H       -3.1593780025    1.2065382307    4.6587967630
H       -2.6221429040   -1.0047833830    4.8746759531
H       -1.0307417767   -1.3760156251    5.5291788023
H       -1.3030968369   -1.4475058657    3.7680081354
29   

C        1.5941917089   -1.1331194416   -0.1229239729
C        1.8737080245   -2.2579539857    0.6532403439
C        1.4342513321    0.1079049408    0.4942881762
C        1.9797998830   -2.1402017217    2.0437120740
C        1.5407816710    0.2219151838    1.8854063916
C        1.4507709676   -0.5455132618    6.2535423739
C        2.4877540872   -1.5237390688    6.0813544175
C        1.7953850098   -0.9033394737    2.6958070140
C        1.1108955451   -0.1518180714    4.9932783361
C        0.0592284850    0.8472490384    4.6035484399
C       -2.3207229621    1.4831103719    4.3275924254
C       -1.7120242795   -0.8483721566    5.0179592392
N        2.7211870746   -1.6914681353    4.8053947578
N        1.9070760131   -0.8366558515    4.1082084460
N       -1.2932946163    0.5056407034    4.6698306658
O        0.3782588206    1.9764862922    4.2209970149
H        1.5136976567   -1.2200994322   -1.2007274142
H        2.0115735170   -3.2238127554    0.1801930478
H        1.2396986659    0.9910930007   -0.1041434412
H        2.2000375665   -3.0256864662    2.6296089486
H        1.4646368902    1.2121892212    2.3095299796
H        1.0328876582   -0.1980207191    7.1902832231
H        2.9921719324   -2.0518329207    6.8822873669
H       -2.5409718499    1.4401752100    3.2565231806
H       -2.0008596082    2.4980665977    4.5852782862
H       -3.2381635951    1.2807725581    4.8892647845
H       -1.8832600592   -0.9281740886    6.0958277546
H       -0.9654147129   -1.5904949593    4.7181394694
H       -2.6377691470   -1.1032199441    4.4924377732
29   

C        1.7702430974   -1.1455814422   -0.2345382148
C        1.9397776134   -2.2824763718    0.5561006570
C        1.6560548496    0.1058848318    0.3725009487
C        1.9794988895   -2.1653304421    1.9500563264
C        1.6995464693    0.2188591196    1.7672872071
C        1.3268210179   -0.6453703815    6.1312764117
C        2.4172964328   -1.5666623678    5.9828966575
C        1.8375219365   -0.9167769659    2.5892217520
C        1.0225179113   -0.2308855503    4.8669839108
C       -0.0455616581    0.7431753639    4.4728855156
C       -2.4156804661    1.4675020591    4.4669544451
C       -1.8015849115   -0.8140331388    5.3010631851
N        2.7177171384   -1.6841954550    4.7162018850
N        1.8956230142   -0.8500845275    4.0033158437
N       -1.3854483078    0.4799324460    4.7704966394
O        0.2399787320    1.8000665705    3.9018810902
H        1.7408467863   -1.2318352298   -1.3149595399
H        2.0448284232   -3.2566695447    0.0918707275
H        1.5476431351    0.9971035042   -0.2356099812
H        2.1177432883   -3.0578556770    2.5501106437
H        1.6712302534    1.2123696777    2.1909417371
H        0.8557212038   -0.3421196746    7.0580242163
H        2.9103191400   -2.0924757981    6.7923755526
H       -2.7682837901    1.3426538944    3.4385678648
H       -2.0322668334    2.4855599543    4.5917313484
H       -3.2624904219    1.3548921404    5.1513236473
H       -1.8024245113   -0.7951138046    6.3951940160
H       -1.1429511170   -1.6171859177    4.9551607726
H       -2.8093900405   -1.0590812358    4.9509646571
29   

C        1.8713815295   -1.2145311954   -0.2513330515
C        3.0011279869   -1.5399154157    0.5006035256
C        0.6744494768   -0.9064754603    0.3973066173
C        2.9321353934   -1.5531332486    1.8983548785
C        0.6098124938   -0.9143892144    1.7957841237
C        1.1189027542   -1.0100457252    6.1076867261
C        2.1218898999   -2.0316461176    5.9725186286
C        1.7424171020   -1.2262576746    2.5778999974
C        0.9058705891   -0.5408580848    4.8435311090
C        0.1120838850    0.6510356256    4.4087066115
C       -1.9461775840    2.0295728271    4.4651074402
C       -1.9307878497   -0.2454583689    5.5151677326
N        2.4680236112   -2.1429791913    4.7161378733
N        1.7121578722   -1.2573757605    3.9944477526
N       -1.2174657199    0.8128206439    4.8086196408
O        0.6328949512    1.5145926555    3.7006846186
H        1.9228800683   -1.2030995898   -1.3342346919
H        3.9342040439   -1.7803549780    0.0036739202
H       -0.2081128220   -0.6618289789   -0.1828025749
H        3.8182031146   -1.8059870727    2.4699872163
H       -0.3410810025   -0.6917621828    2.2610028266
H        0.6912524024   -0.6442663072    7.0326770222
H        2.5464964410   -2.6055741754    6.7880733507
H       -2.4277655069    1.9202780277    3.4886431276
H       -1.2752675627    2.8945825227    4.4367064197
H       -2.7108690298    2.2393589753    5.2197183739
H       -1.8033767766   -0.1351044736    6.5964933378
H       -1.5767431556   -1.2350437128    5.2086014367
H       -2.9992545424   -0.2033606976    5.2806297454
29   

C        1.9609186052   -1.2964777992   -0.2719185318
C        3.0924564595   -1.5132224449    0.5160920693
C        0.7236698521   -1.0815232732    0.3383645386
C        2.9844562388   -1.5117814153    1.9113893003
C        0.6203663197   -1.0733820618    1.7346641608
C        0.9890582435   -1.0945192787    6.0528724427
C        2.0347050720   -2.0755747034    5.9492681865
C        1.7523836010   -1.2759050860    2.5510405593
C        0.8075588372   -0.6158368565    4.7854583254
C        0.0318693726    0.5782836466    4.3326258500
C       -1.9070100147    2.1102590532    4.4920357683
C       -1.9513517518   -0.0820266225    5.6971063933
N        2.4420813357   -2.1522411563    4.7096942667
N        1.6818332730   -1.2894420980    3.9657088271
N       -1.2296096373    0.8715721244    4.8621408281
O        0.4936794417    1.3300982378    3.4714707121
H        2.0426399619   -1.2961716605   -1.3529742207
H        4.0565935933   -1.6801121524    0.0492909872
H       -0.1592413890   -0.9199794486   -0.2694665787
H        3.8705433003   -1.6801166029    2.5132289734
H       -0.3545156377   -0.9184920200    2.1783902527
H        0.5259420048   -0.7511479903    6.9689138244
H        2.4462859217   -2.6434771747    6.7756492860
H       -2.4660724820    1.9736930986    3.5613419031
H       -1.1869021404    2.9246793023    4.3598124426
H       -2.5986354210    2.4162704578    5.2833828035
H       -1.7259257399    0.0881220907    6.7543515959
H       -1.6963125048   -1.1129358337    5.4312903293
H       -3.0304452403    0.0257060990    5.5473548504
29   

C        2.1876286277   -1.5713001925   -0.1654936696
C        3.2976189135   -1.6422158549    0.6781788219
C        0.9080571036   -1.4560798452    0.3821252483
C        3.1254790409   -1.5948184209    2.0661574564
C        0.7404557476   -1.4013759576    1.7712662109
C        0.8937449476   -1.2495140358    6.0919761544
C        1.9831929001   -2.1854632036    6.0543183105
C        1.8481256445   -1.4554852236    2.6412121853
C        0.7604808170   -0.7808675991    4.8125864785
C        0.0067297344    0.4053014798    4.3073603893
C       -1.8011870903    2.0869859552    4.4659635703
C       -1.9130907127    0.0216510116    5.8659148752
N        2.4677395843   -2.2437509907    4.8431247323
N        1.7132889139   -1.4207112316    4.0503966737
N       -1.1789360030    0.8435973359    4.9111236758
O        0.3959766508    1.0184575997    3.3103786921
H        2.3189514515   -1.6061398224   -1.2410480441
H        4.2940098574   -1.7311958212    0.2603754332
H        0.0425714716   -1.4066427702   -0.2685705043
H        3.9936413047   -1.6506216179    2.7132845053
H       -0.2614194147   -1.3202809947    2.1735001541
H        0.3839632151   -0.9200160010    6.9872704030
H        2.3706419920   -2.7320778285    6.9063273709
H       -2.4022417445    1.9107653205    3.5686126945
H       -1.0405765205    2.8431099819    4.2441825546
H       -2.4438973343    2.4951411342    5.2524478537
H       -1.6027776328    0.2534098370    6.8893685124
H       -1.7620774364   -1.0441427145    5.6668359307
H       -2.9881085519    0.2089444387    5.7775877728
29   

C        2.7430853208   -0.9860114932   -0.0924736996
C        2.7261347211    0.0365402289    0.8591226651
C        2.2637700870   -2.2533891579    0.2444269973
C        2.2200874231   -0.2061937636    2.1421386003
C        1.7657471182   -2.4935174371    1.5299611438
C        0.5182456059   -1.5790528473    5.8742331802
C        1.2537634614   -2.7974570402    5.6841216694
C        1.7147298458   -1.4723942118    2.4969554166
C        0.5018802141   -0.9512793892    4.6548423656
C       -0.3477061885    0.1682939285    4.1472933270
C       -1.9710488375    2.0133458542    4.4258552092
C       -0.7283331583    1.1704328691    6.4149815276
N        1.6232003220   -2.8940732200    4.4370471783
N        1.2167671990   -1.7581934030    3.7907118083
N       -1.0390213894    1.0444814844    4.9969810015
O       -0.4298266536    0.3979882272    2.9376911475
H        3.1273043168   -0.7971751993   -1.0884277932
H        3.1019344935    1.0207379657    0.6043490914
H        2.2742741798   -3.0520202867   -0.4885902517
H        2.2176732385    0.5963053675    2.8693485198
H        1.3973571700   -3.4807204942    1.7852542117
H       -0.0000764008   -1.3185804336    6.7858524564
H        1.4387984686   -3.5444979005    6.4473560396
H       -2.6814973668    2.3555650246    5.1850400019
H       -2.5538748104    1.5581049158    3.6180612866
H       -1.4265430945    2.8767590697    4.0311498532
H        0.3352485008    0.9888753312    6.5997302323
H       -1.3358373041    0.4766835070    7.0041802787
H       -0.9358088198    2.1886433688    6.7596580885
29   

C        2.7510009844   -0.9409563924   -0.0454867281
C        2.5601036744    0.0901840053    0.8768547656
C        2.4222166892   -2.2518680355    0.3042139887
C        2.0314425621   -0.1885737595    2.1431753249
C        1.9010662004   -2.5275802497    1.5733804622
C        0.3518502484   -1.6804117933    5.8387979642
C        1.1385937920   -2.8720170468    5.6792055208
C        1.6779409309   -1.5022883296    2.5118850195
C        0.3790611164   -1.0498206716    4.6238956977
C       -0.4803542886    0.0571704468    4.1083579227
C       -1.9409289568    2.0292553701    4.4215476623
C       -0.4989920463    1.2519958768    6.3071380965
N        1.5768645893   -2.9453277353    4.4513445840
N        1.1583423117   -1.8218538512    3.7898414179
N       -0.9947202237    1.0514249397    4.9505683656
O       -0.7360489795    0.1454218243    2.9048340872
H        3.1533244915   -0.7249982609   -1.0287350977
H        2.8194068589    1.1088458803    0.6122539637
H        2.5671912980   -3.0574280333   -0.4066493006
H        1.9002506739    0.6255421357    2.8446811255
H        1.6488558924   -3.5489256845    1.8357470747
H       -0.2252732264   -1.4262225462    6.7176065643
H        1.3118911033   -3.6170871937    6.4471008068
H       -2.5345248300    2.4637476799    5.2321566333
H       -2.6407186464    1.5536049825    3.7262030864
H       -1.4076945558    2.8300961731    3.9001173184
H        0.5504339942    0.9522047434    6.3918994311
H       -1.1031477207    0.6868474834    7.0234304038
H       -0.5456170704    2.3128471315    6.5735214519
29   

C        2.7505571599   -0.8166883305    0.0342085695
C        2.4338923820    0.2020273136    0.9349631598
C        2.5445455216   -2.1488756105    0.3963652761
C        1.9026587701   -0.1109561053    2.1920248985
C        2.0202534458   -2.4586423856    1.6564043606
C        0.2424852682   -1.7276283830    5.8536317924
C        1.0868668236   -2.8828464267    5.7153752064
C        1.6726973773   -1.4488837797    2.5742173962
C        0.3014002958   -1.0834634010    4.6494969952
C       -0.5526318550    0.0291167103    4.1342942633
C       -1.8417621089    2.1189831482    4.4546051166
C       -0.2795093590    1.3342359456    6.2444727706
N        1.5911102833   -2.9150775715    4.5099200606
N        1.1515583578   -1.8024286367    3.8430418466
N       -0.9063278158    1.1123006041    4.9462909173
O       -0.9594893640    0.0132212175    2.9705622574
H        3.1556642780   -0.5745566859   -0.9418142440
H        2.5989328879    1.2377981859    0.6610462629
H        2.7874291947   -2.9451641117   -0.2980749995
H        1.6807754557    0.6995947301    2.8739674778
H        1.8635151499   -3.4970699188    1.9262161843
H       -0.3789224225   -1.4910166616    6.7076715334
H        1.2563808085   -3.6312646023    6.4808508111
H       -2.3617552347    2.5955327706    5.2916990094
H       -2.6065130130    1.6632235003    3.8168348821
H       -1.3092787461    2.8843213112    3.8817984920
H        0.7462174305    0.9519459919    6.2591065822
H       -0.8596779578    0.8514293498    7.0368331393
H       -0.2206648339    2.4065025107    6.4572081088
29   

C        2.7678401134   -0.7639205159    0.1291941227
C        2.3349242036    0.2288772998    1.0096750408
C        2.6863428339   -2.1052415285    0.5058214444
C        1.8124025052   -0.1195005571    2.2609125453
C        2.1694333826   -2.4504069665    1.7597372999
C        0.2080906626   -1.8704095972    5.8969291399
C        1.1195268435   -2.9758041470    5.7732397586
C        1.7067645954   -1.4694970352    2.6584813927
C        0.2767980633   -1.2081992148    4.7051343263
C       -0.5889520402   -0.0975406828    4.1991355012
C       -1.7133875227    2.0911537389    4.5010539434
C       -0.0236829260    1.3074509401    6.1759950241
N        1.6744563631   -2.9562626044    4.5890154231
N        1.1959826240   -1.8599714072    3.9214251208
N       -0.7841804073    1.0616880238    4.9556438843
O       -1.1541739580   -0.2030682764    3.1093466093
H        3.1674185957   -0.4944371230   -0.8419769185
H        2.4046069611    1.2726289518    0.7250370957
H        3.0207139188   -2.8817746927   -0.1728344104
H        1.5078667039    0.6791483757    2.9239620686
H        2.1102731322   -3.4966238437    2.0385645484
H       -0.4477716739   -1.6655705086    6.7336906080
H        1.3020421297   -3.7263776703    6.5335976615
H       -2.1584897376    2.6045491120    5.3592469696
H       -2.5360094917    1.6541884376    3.9253599037
H       -1.1922882628    2.8232643968    3.8767330453
H        0.9750047233    0.8627552088    6.1172489621
H       -0.5511261113    0.8979196565    7.0430368634
H        0.1155831264    2.3830454465    6.3246468648
29   

C        2.6928355304   -0.6339390315    0.1110733692
C        1.3212080089   -0.4476846147    0.2890116324
C        3.4385041003   -1.2620686884    1.1089821386
C        0.6988552563   -0.8779392016    1.4669958830
C        2.8129233870   -1.6877558659    2.2862067804
C       -0.0752723644   -1.9998809872    5.7179942383
C        0.7350823948   -3.1638965679    5.4979870304
C        1.4346309230   -1.4856825728    2.5031145584
C        0.0332006179   -1.2568449377    4.5782598119
C       -0.6284140867    0.0574184245    4.2958157052
C       -1.0840361305    2.4201466171    4.8901932212
C        0.6664051070    1.1277615073    6.1323174838
N        1.2832330281   -3.0944368900    4.3133810121
N        0.8466647000   -1.9444739466    3.7077947572
N       -0.3739966104    1.1645851612    5.1099194767
O       -1.4220966647    0.1793742016    3.3577346148
H        3.1733915821   -0.3043301929   -0.8032792140
H        0.7302071592    0.0184466297   -0.4915411002
H        4.5017456069   -1.4245282876    0.9721505317
H       -0.3740983697   -0.7707934235    1.5352156808
H        3.4054813522   -2.1794821591    3.0496577254
H       -0.6548909120   -1.7713533924    6.6037572262
H        0.8801014883   -3.9716178243    6.2060570404
H       -1.1602638979    2.9815303532    5.8267647732
H       -2.1049034545    2.2377077239    4.5387075668
H       -0.5556488061    3.0292497854    4.1504035721
H        1.4769569213    0.4473054051    5.8521947446
H        0.2466639694    0.8118494902    7.0922574919
H        1.1137755014    2.1197165755    6.2513575472
29   

C        2.6629980815   -0.4985882416    0.2666390435
C        1.3016553113   -0.2744211005    0.4743585066
C        3.3937654239   -1.2230007985    1.2084542240
C        0.6751078889   -0.7622621846    1.6271791158
C        2.7640338206   -1.7094600588    2.3596886967
C       -0.2124296092   -2.1310475516    5.7521329983
C        0.6641412150   -3.2497091304    5.5468569515
C        1.3959041542   -1.4736499127    2.6080901436
C       -0.0835061521   -1.3596964462    4.6353602116
C       -0.7724555528   -0.0572251584    4.3434924891
C       -1.0481342710    2.3754410386    4.7316485315
C        0.8029078059    1.1207994398    5.8645356598
N        1.2675394497   -3.1246595232    4.3931851574
N        0.8049128516   -1.9821670550    3.7929969639
N       -0.3601491859    1.1138252070    4.9830106172
O       -1.7060948214   -0.0077137179    3.5378058060
H        3.1470067758   -0.1222123414   -0.6276666499
H        0.7215976578    0.2678892377   -0.2641731807
H        4.4493828126   -1.4121048234    1.0485355468
H       -0.3906309660   -0.6110382926    1.7145568590
H        3.3485707224   -2.2724136820    3.0788992804
H       -0.8413917949   -1.9466933737    6.6142700033
H        0.8137042455   -4.0664658257    6.2435298312
H       -0.9833745429    3.0240552037    5.6109752279
H       -2.1114122993    2.2109613190    4.5285611715
H       -0.5971118371    2.8876028360    3.8761862822
H        1.5363211377    0.3638909933    5.5690604491
H        0.4969822087    0.9383146124    6.8992402738
H        1.3106586963    2.0890132108    5.8109142949
29   

C        2.5647596601   -0.2871111138    0.4778702339
C        1.2077916596   -0.0652069584    0.7157839353
C        3.2969134329   -1.0886104748    1.3540797612
C        0.5869600696   -0.6318943356    1.8350872347
C        2.6735619488   -1.6551775168    2.4714914007
C       -0.3605533609   -2.2749600037    5.8153116626
C        0.5594973726   -3.3558058906    5.5904713662
C        1.3110883418   -1.4241704499    2.7512549677
C       -0.2064912526   -1.4432217280    4.7471847257
C       -0.9112521340   -0.1459593094    4.4653310482
C       -1.0012582771    2.3323409426    4.5867132366
C        0.9517850959    1.0815368291    5.5489638818
N        1.2046543689   -3.1557973350    4.4694394818
N        0.7277699842   -1.9998659459    3.9088703224
N       -0.3350204366    1.0629426237    4.8605978020
O       -1.9747776908   -0.1378004425    3.8403775780
H        3.0449541400    0.1521288454   -0.3894697816
H        0.6278860880    0.5390875465    0.0268971651
H        4.3492485445   -1.2743715097    1.1699996386
H       -0.4760103864   -0.4694814062    1.9516126960
H        3.2597443638   -2.2748766920    3.1411482071
H       -1.0310545477   -2.1532297835    6.6570982524
H        0.7074870392   -4.2014049576    6.2521993647
H       -0.8330478203    3.0367193192    5.4072540277
H       -2.0840331061    2.2026826979    4.4908026726
H       -0.6147061766    2.7658041024    3.6591130755
H        1.0358762874    0.2507031646    6.2563951393
H        1.0684364239    2.0055105061    6.1236733054
H        1.7679564860    1.0169594231    4.8220044468
29   

C        2.5185581540   -0.1957493504    0.6059617435
C        1.1564254609   -0.0137569780    0.8499416809
C        3.2738056160   -0.9944985524    1.4653824139
C        0.5531809629   -0.6172442323    1.9595316284
C        2.6684821653   -1.5979550404    2.5732677527
C       -0.4526004724   -2.4035920100    5.8314987472
C        0.5197598597   -3.4412752732    5.6185510576
C        1.3019554925   -1.4062632308    2.8592003288
C       -0.2625598471   -1.5171608891    4.8148237542
C       -0.9730050314   -0.2187900299    4.5643216072
C       -0.9767896392    2.2686498896    4.5052503459
C        1.0287645819    1.0238487256    5.3489870024
N        1.2257338950   -3.1690432847    4.5501053578
N        0.7359187914   -2.0097754997    4.0101018349
N       -0.3203786532    0.9963313454    4.7920829398
O       -2.1226996172   -0.2166835826    4.1173351724
H        2.9855855116    0.2727123756   -0.2532852308
H        0.5602336865    0.5891729278    0.1738647218
H        4.3302874625   -1.1488995534    1.2758814918
H       -0.5136806393   -0.4826206834    2.0877298578
H        3.2709554236   -2.2143895241    3.2315499314
H       -1.1725561289   -2.3382135555    6.6380973311
H        0.6598342549   -4.3086097327    6.2533289694
H       -0.7850003402    2.9848140643    5.3102342616
H       -2.0626268435    2.1576586403    4.4247961523
H       -0.5986013932    2.6792160532    3.5638280805
H        1.1693628116    0.2271797597    6.0865251214
H        1.2134933654    1.9727366148    5.8620758359
H        1.7698483178    0.9094084630    4.5513178188
29   

C        2.4906184304   -0.1850762408    0.6533125277
C        1.1278385801   -0.0169736099    0.9047796797
C        3.2599968714   -0.9732933136    1.5103133786
C        0.5380117583   -0.6240176588    2.0196227320
C        2.6679424992   -1.5809929069    2.6230333388
C       -0.5386935202   -2.4945583056    5.7970358004
C        0.4629883028   -3.5075816384    5.6003860091
C        1.3014743831   -1.4029728721    2.9153666098
C       -0.3044776188   -1.5586529115    4.8350289968
C       -1.0105165632   -0.2511427580    4.6457890308
C       -0.9979397133    2.2276327756    4.4808319411
C        1.0710755465    1.0105718272    5.1835462744
N        1.2275588434   -3.1790008270    4.5897204026
N        0.7459152466   -2.0083626394    4.0691247716
N       -0.3226153982    0.9626646002    4.7514221710
O       -2.2195759183   -0.2362045782    4.3993686219
H        2.9475942984    0.2863236364   -0.2097632845
H        0.5217141862    0.5784613921    0.2308764900
H        4.3170606694   -1.1162648618    1.3149966329
H       -0.5288281040   -0.4987952484    2.1600720382
H        3.2795552656   -2.1898077173    3.2801034352
H       -1.3004957590   -2.4692229342    6.5668317528
H        0.5815763562   -4.3974714368    6.2077362733
H       -1.3373964854    2.6828172824    5.4161788196
H       -1.8610683463    2.0889518577    3.8219263328
H       -0.3143259668    2.9162083641    3.9741517445
H        1.3111290774    0.1777499997    5.8521890166
H        1.2618450243    1.9324538083    5.7419618877
H        1.7406590429    0.9809897836    4.3181896243
29   

C        0.8277062952   -1.7971161370    0.3700566147
C        0.0688745904   -2.2707235446    1.4420949688
C        1.8922007240   -0.9259549594    0.6069553526
C        0.3651494972   -1.8626747016    2.7479635785
C        2.1888575074   -0.5223384582    1.9134377853
C        1.6501055521   -0.0999422188    6.4767609185
C        2.9979595908    0.0014121153    5.9863565247
C        1.4210140296   -0.9639145543    3.0083012312
C        0.8812775643   -0.3899416200    5.3891353612
C       -0.6118978269   -0.4657965447    5.3659277588
C       -2.8279618710    0.0845254855    4.4063620286
C       -0.7944033194    1.2922325685    3.5983859098
N        3.0126609706   -0.2164434930    4.6958849332
N        1.7330983056   -0.5135367663    4.3132439591
N       -1.3797512378    0.2559509191    4.4443075561
O       -1.1962928435   -1.1337085402    6.2242191178
H        0.5974492553   -2.1120807358   -0.6417608982
H       -0.7473118786   -2.9623122923    1.2643269653
H        2.4912320771   -0.5617087300   -0.2204060934
H       -0.2248196524   -2.2737504435    3.5582677799
H        3.0192251319    0.1547028067    2.0828591558
H        1.3104152831    0.0637191402    7.4925782011
H        3.8664916833    0.2451755920    6.5872531669
H       -3.3091991996    0.7667438572    5.1137967037
H       -3.1074738765   -0.9442182918    4.6564815054
H       -3.2063406205    0.2869712449    3.3993407705
H       -0.5712661160    0.8953829904    2.6031731247
H        0.1216552277    1.6988781851    4.0382091764
H       -1.4922682923    2.1287275346    3.4915603754
29   

C        0.8395111844   -1.7956458795    0.3557341378
C        0.0531760923   -2.2387101217    1.4214154808
C        1.9128347062   -0.9364299199    0.5972491950
C        0.3314929804   -1.8120563130    2.7255069440
C        2.1920352817   -0.5154199720    1.9019581806
C        1.6004289756   -0.1366202819    6.4670254955
C        2.9568296651   -0.0682271601    5.9965151000
C        1.3973542975   -0.9270756195    2.9888998348
C        0.8285750224   -0.3507885334    5.3626327906
C       -0.6643652449   -0.3104450103    5.3607007548
C       -2.8698662130    0.2298467950    4.3872429748
C       -0.8149535113    1.2663759380    3.4221870666
N        2.9785199035   -0.2316654804    4.6987585872
N        1.6935603540   -0.4650112989    4.2922380453
N       -1.4141207893    0.3211256608    4.3601744206
O       -1.2704062996   -0.7547579636    6.3405667141
H        0.6234591761   -2.1245365146   -0.6548050314
H       -0.7706502930   -2.9200779270    1.2396220691
H        2.5325026857   -0.5954017209   -0.2248399544
H       -0.2805354835   -2.1926654478    3.5344126287
H        3.0299400616    0.1509666188    2.0768072088
H        1.2548312873    0.0120844648    7.4834397632
H        3.8262426332    0.1187815422    6.6161882008
H       -3.2827286623    0.9576466398    5.0926804262
H       -3.1878080229   -0.7752551175    4.6838467296
H       -3.2821513323    0.4225263549    3.3916835655
H       -0.6550125225    0.7953590964    2.4475406542
H        0.1361754277    1.6561995232    3.7975604306
H       -1.4757050052    2.1283566382    3.2857672282
29   

C        0.8719927499   -1.7713380287    0.3559175989
C        0.0914016181   -2.2262894234    1.4211632128
C        1.9335930769   -0.8976315591    0.5981782678
C        0.3641202657   -1.7973431890    2.7258526545
C        2.2074726771   -0.4748970928    1.9033888785
C        1.6355123289   -0.2504108933    6.4836266942
C        2.9902378747   -0.1776930148    6.0106451440
C        1.4185815938   -0.8994257993    2.9891875981
C        0.8486586548   -0.3790486702    5.3747629033
C       -0.6385502552   -0.2458099821    5.4150934510
C       -2.8657613880    0.2475621323    4.4781011105
C       -0.8420177256    1.1864244731    3.3719420552
N        3.0019404393   -0.2560437564    4.7055221242
N        1.7112774910   -0.4421551600    4.2940416128
N       -1.4108097865    0.2934186881    4.3775062338
O       -1.2151247553   -0.4913273187    6.4788148774
H        0.6606701994   -2.1019084861   -0.6550866965
H       -0.7234904969   -2.9179653885    1.2381545753
H        2.5486811643   -0.5473027300   -0.2234713239
H       -0.2431080385   -2.1816946725    3.5367620846
H        3.0369906846    0.2013327901    2.0806806906
H        1.2996701268   -0.1424086589    7.5086749109
H        3.8657342232   -0.0440222462    6.6355296873
H       -3.2252407860    1.0351550826    5.1478215682
H       -3.1930334821   -0.7242894799    4.8625218073
H       -3.3209928860    0.3807681686    3.4915708753
H       -0.7349303950    0.6730853618    2.4117408677
H        0.1293022557    1.5792579635    3.6870747664
H       -1.4966751973    2.0517940216    3.2275949891
29   

C        0.9085570117   -1.7446655185    0.3593717479
C        0.1293044912   -2.2118478800    1.4205946136
C        1.9547398116   -0.8537191704    0.6068592696
C        0.3882344936   -1.7781568270    2.7266572531
C        2.2149259420   -0.4264922620    1.9133887701
C        1.6307229262   -0.3483780731    6.4974438703
C        2.9882045592   -0.2844873779    6.0325637809
C        1.4269889937   -0.8638248610    2.9943301327
C        0.8396798440   -0.3864030081    5.3829921666
C       -0.6360253400   -0.1487654662    5.4518281987
C       -2.8827962896    0.2794751202    4.5420497922
C       -0.8944786695    1.1222607218    3.3148969548
N        3.0021403417   -0.2807147338    4.7257446876
N        1.7089684218   -0.4093213094    4.3016038114
N       -1.4320667702    0.2841005361    4.3826830673
O       -1.1724074236   -0.1844767379    6.5623258979
H        0.7083669020   -2.0790100259   -0.6526649498
H       -0.6736361450   -2.9161833089    1.2331860652
H        2.5689702598   -0.4942490655   -0.2114981032
H       -0.2172388360   -2.1677910452    3.5365548535
H        3.0335316405    0.2613426889    2.0968302319
H        1.2982013493   -0.2750148942    7.5267961294
H        3.8645606126   -0.2103879019    6.6660842582
H       -3.2015567412    1.1341819885    5.1471931634
H       -3.2105541285   -0.6441978728    5.0307526701
H       -3.3745521357    0.3283285969    3.5653382761
H       -0.8280680795    0.5644772288    2.3762761053
H        0.0897072719    1.5225044542    3.5755457369
H       -1.5480137380    1.9854064045    3.1529985382
