19   

C        2.1670136427   -0.4885450930   -0.0248290744
C        0.8667346943   -0.3835903573    0.4526153198
C        3.1485067787   -1.0993540163    0.7575350451
C        0.5593290829   -0.8885956127    1.7143608800
C        3.8455313683   -3.0606837520    3.9269558685
C        6.1165535494   -2.6573391019    3.1789162693
C        2.8595678527   -1.6261686417    2.0394869149
C        1.5354982797   -1.5023338787    2.5111865296
C        3.9436541638   -2.2531196598    2.8176715337
N        5.2559536655   -2.0428233336    2.4045458545
O        1.1466514564   -1.9387537839    3.7453341499
S        5.4111197217   -3.5708183208    4.4988671708
H        2.4214719833   -0.0965155616   -1.0030176756
H        0.1007713590    0.0908996722   -0.1511295295
H        4.1511203960   -1.1633232701    0.3488858294
H       -0.4569956422   -0.7933608684    2.0757299778
H        2.9212883030   -3.3667613775    4.3938447792
H        7.1866665482   -2.6074577893    3.0149791053
H        0.2151393040   -1.7095227792    3.9017906500
19   

C        2.1435889289   -0.5681230861   -0.0585202690
C        0.8650159272   -0.3924083902    0.4603202573
C        3.1269634075   -1.1929309617    0.7111480426
C        0.5807644822   -0.8386838848    1.7508688308
C        3.8234142215   -3.2201148293    3.7912725108
C        6.1011834820   -2.5353378372    3.3018531261
C        2.8553042259   -1.6653321477    2.0135402712
C        1.5598704631   -1.4652098420    2.5330394600
C        3.9427949656   -2.2888855373    2.7904260251
N        5.2532108141   -1.9092502586    2.5217701331
O        1.2180336142   -1.8460220334    3.8001118886
S        5.3794295833   -3.6590932039    4.4425737830
H        2.3792515374   -0.2180022798   -1.0570900430
H        0.0985678222    0.0939167107   -0.1332970188
H        4.1182577561   -1.3137742950    0.2872644396
H       -0.4160765878   -0.6866837463    2.1455135622
H        2.8837124362   -3.6343884890    4.1291992839
H        7.1713030413   -2.3731061309    3.2465891718
H        0.3158423439   -1.5491281006    4.0063675579
19   

C        2.1117994111   -0.6269005734   -0.0850661565
C        0.8597471638   -0.3830857022    0.4738528227
C        3.0969971346   -1.2689344542    0.6687554906
C        0.6036276250   -0.7768485208    1.7885319522
C        3.8160945359   -3.3498643220    3.6511795397
C        6.0543156741   -2.4236832838    3.4473911000
C        2.8463203669   -1.6940259874    1.9875803346
C        1.5852664876   -1.4203775326    2.5526846005
C        3.9396097116   -2.3151981969    2.7622582456
N        5.2205586247   -1.7880727791    2.6590529346
O        1.2896816193   -1.7620540485    3.8427288905
S        5.3477313855   -3.7278056768    4.3922662089
H        2.3253992719   -0.3135749259   -1.1006690672
H        0.0927608493    0.1171933399   -0.1073353286
H        4.0740970010   -1.4396514030    0.2291139497
H       -0.3703788745   -0.5714815563    2.2147307932
H        2.8812780632   -3.8506060982    3.8648030833
H        7.1044708198   -2.1640682340    3.5130901544
H        0.4178172119   -1.4116909162    4.0907499635
19   

C        2.0836866439   -0.6758156231   -0.1004905111
C        0.8617520061   -0.3717021992    0.4973463230
C        3.0776858021   -1.3228795826    0.6380591275
C        0.6440824369   -0.7094054011    1.8353341993
C        3.8548284184   -3.4622140519    3.4858445361
C        6.0046390491   -2.3321320755    3.6158256667
C        2.8593909276   -1.6939537230    1.9760559761
C        1.6346546934   -1.3581410415    2.5827173849
C        3.9601996289   -2.3158469467    2.7465701108
N        5.1844305678   -1.6688644254    2.8359197104
O        1.3888273059   -1.6580722940    3.8933396642
S        5.3482189955   -3.8072710953    4.3157541818
H        2.2667827918   -0.4040917702   -1.1338808265
H        0.0885890944    0.1324233362   -0.0722139397
H        4.0350363057   -1.5387109797    0.1757100690
H       -0.3052750378   -0.4580954698    2.2914600584
H        2.9497075490   -4.0509735801    3.5522829125
H        7.0149307225   -1.9953980005    3.8169656541
H        0.5452617964   -1.2667287711    4.1749843456
19   

C        2.0516121518   -0.7300317658   -0.1249530725
C        0.8617460855   -0.3592451573    0.5012918926
C        3.0523838380   -1.3743170434    0.6074277823
C        0.6811951516   -0.6294899933    1.8605875160
C        3.9141954454   -3.5735412018    3.2568947775
C        5.9224152957   -2.3051726481    3.7862403739
C        2.8696401018   -1.6710326223    1.9676633929
C        1.6780546159   -1.2756505601    2.6013596980
C        3.9665434874   -2.3096999314    2.7380638445
N        5.1076812493   -1.5869788673    3.0506410465
O        1.4734553125   -1.5233366270    3.9296516412
S        5.3606427834   -3.9307750488    4.1616844758
H        2.2035492445   -0.5129632413   -1.1761739012
H        0.0837750521    0.1424141567   -0.0638867473
H        3.9844576563   -1.6451879540    0.1233710118
H       -0.2438742671   -0.3304586250    2.3373472845
H        3.0718662411   -4.2401929158    3.1301645544
H        6.8743137642   -1.9254045210    4.1386588006
H        0.6554405069   -1.0941319718    4.2301098829
19   

C        1.9971517267   -0.8307554078   -0.1428235782
C        0.8440690892   -0.3838262333    0.5031794696
C        3.0098614748   -1.4538189616    0.5916967116
C        0.7088129668   -0.5621786504    1.8830687783
C        4.0408609992   -3.6378935498    2.9839238115
C        5.8406342670   -2.3042895100    3.9369302230
C        2.8781835428   -1.6409143705    1.9766401346
C        1.7169939043   -1.1868164688    2.6268477622
C        3.9672859016   -2.2933378156    2.7492391525
N        4.9962522580   -1.5378159956    3.2890694381
O        1.5526936459   -1.3594047278    3.9724074779
S        5.4534104653   -4.0218747746    3.9305651297
H        2.1097760357   -0.6910996270   -1.2119869701
H        0.0571865310    0.1014908023   -0.0639332870
H        3.9100827588   -1.7908803755    0.0895309074
H       -0.1910605194   -0.2119716493    2.3730212894
H        3.3076144404   -4.3514361644    2.6329622613
H        6.7172321848   -1.9097085921    4.4373333975
H        0.7585972206   -0.8914306735    4.2782459480
19   

C        1.9280925878   -0.9459567882   -0.1465786751
C        0.8174028574   -0.4163466291    0.5105535576
C        2.9494916664   -1.5520710626    0.5898659075
C        0.7301068184   -0.5009195409    1.9029728624
C        4.2057612727   -3.6350099272    2.7252016568
C        5.7567987925   -2.3159967484    4.0592403734
C        2.8753465032   -1.6291669692    1.9902385441
C        1.7468023918   -1.1080356186    2.6498544149
C        3.9591757243   -2.2904790903    2.7581762694
N        4.8570645726   -1.5413047855    3.5026292095
O        1.6182996769   -1.2002380436    4.0071404055
S        5.5971794295   -4.0315710752    3.6976814123
H        2.0001783882   -0.8848310464   -1.2265785925
H        0.0239036833    0.0564067338   -0.0579589416
H        3.8136584567   -1.9577226967    0.0753240309
H       -0.1411958935   -0.0943481495    2.4009667648
H        3.6068891895   -4.3446430131    2.1704375520
H        6.5478308459   -1.9275399890    4.6900137242
H        0.8526084427   -0.6861052309    4.3103010274
19   

C        1.8594146529   -1.0479791304   -0.1418183420
C        0.7927372972   -0.4435765489    0.5219155743
C        2.8860331865   -1.6479809877    0.5918235830
C        0.7532855592   -0.4501888189    1.9184284520
C        4.3649495970   -3.5874947860    2.5343043152
C        5.6663092466   -2.3423841511    4.1705280082
C        2.8662811032   -1.6427521757    1.9977907942
C        1.7750061765   -1.0507923570    2.6642081135
C        3.9567111300   -2.2996638409    2.7525972833
N        4.7180897646   -1.5891791959    3.6682852435
O        1.6769058762   -1.0713313198    4.0270003410
S        5.7297055220   -3.9855035956    3.5432770332
H        1.8935245853   -1.0493399404   -1.2254234783
H       -0.0049171509    0.0250565787   -0.0441973942
H        3.7150049490   -2.1094117692    0.0666323837
H       -0.0872025563    0.0105830776    2.4221467646
H        3.8928618592   -4.2602187210    1.8311344259
H        6.3673484026   -1.9769946576    4.9118224343
H        0.9403432663   -0.5129042724    4.3227848266
19   

C        1.7952633685   -1.1383987773   -0.1359380399
C        0.7723148817   -0.4642204055    0.5264189371
C        2.8224368878   -1.7376496011    0.5966860392
C        0.7776752799   -0.4008185596    1.9209754532
C        4.4971948983   -3.5238015013    2.3966495853
C        5.5694666663   -2.4038012034    4.2698783708
C        2.8506293493   -1.6674839402    2.0033414641
C        1.7998531746   -1.0001818740    2.6679779281
C        3.9562470365   -2.3126776686    2.7405260045
N        4.5880996783   -1.6747531811    3.7975188343
O        1.7244625204   -0.9485155773    4.0313556171
S        5.8277007715   -3.9355811540    3.4450226741
H        1.7962156656   -1.1933351765   -1.2187058877
H       -0.0261372039    0.0044753838   -0.0385309133
H        3.6173562256   -2.2459822077    0.0627258264
H       -0.0309832788    0.1139333141    2.4245321322
H        4.1347526876   -4.1427747174    1.5873337202
H        6.1830380988   -2.0827775633    5.1035064837
H        1.0096011797   -0.3551249227    4.3107110143
19   

C        1.7318373227   -1.2157207538   -0.1149190738
C        0.7459223385   -0.4881637251    0.5430234364
C        2.7646015234   -1.8071145092    0.6152337254
C        0.7961847242   -0.3622871761    1.9309332741
C        4.6334763829   -3.4271526793    2.2959493479
C        5.4842027665   -2.4757248178    4.3629481478
C        2.8386540050   -1.6842870509    2.0199404236
C        1.8242885417   -0.9527560100    2.6779826754
C        3.9683649781   -2.3099472105    2.7363910260
N        4.4733464975   -1.7747401751    3.9121727520
O        1.7721990510   -0.8251313008    4.0373559275
S        5.9294254440   -3.8610494194    3.3781505068
H        1.7013068208   -1.3170842305   -1.1939223283
H       -0.0573503911   -0.0248862357   -0.0195782069
H        3.5285648375   -2.3479184657    0.0694357002
H        0.0157690905    0.1968027472    2.4317889445
H        4.3773549800   -3.9809140594    1.4036332846
H        6.0106996408   -2.2175255640    5.2743088143
H        1.0635987766   -0.2157867291    4.2964904661
19   

C        1.6719302173   -1.2958739932   -0.0962390172
C        0.7195527546   -0.5206318602    0.5520666023
C        2.7137341548   -1.8726747235    0.6319011319
C        0.8156653297   -0.3300248445    1.9283898376
C        4.7709528473   -3.3079008868    2.2146155121
C        5.3904264918   -2.5887309397    4.4473136260
C        2.8346265341   -1.6949446439    2.0310778532
C        1.8538211163   -0.9038042587    2.6755777406
C        3.9803939545   -2.3091725007    2.7348592227
N        4.3552206230   -1.9157162088    4.0113073160
O        1.8352305328   -0.6840068635    4.0238384873
S        6.0240564694   -3.7833732772    3.3294113280
H        1.6087524983   -1.4466788646   -1.1680477084
H       -0.0913372983   -0.0684964182   -0.0086948360
H        3.4417935021   -2.4480232416    0.0749826032
H        0.0627245100    0.2715895517    2.4220083654
H        4.6360019912   -3.7687459026    1.2472384829
H        5.8247159075   -2.4196878452    5.4257004297
H        1.1170303936   -0.0779152629    4.2624193380
19   

C        1.6188221098   -1.3746885630   -0.0698341466
C        0.6996166109   -0.5525249847    0.5659363911
C        2.6724576698   -1.9334012144    0.6549729923
C        0.8426653268   -0.2952911896    1.9262832322
C        4.9221541758   -3.1372737915    2.1610290179
C        5.2636926816   -2.7553280911    4.5308187062
C        2.8437008402   -1.6895366984    2.0406820030
C        1.8946340882   -0.8476209916    2.6708981702
C        3.9840958599   -2.3153326925    2.7462179541
N        4.2054504137   -2.1154235975    4.1015566806
O        1.9316184698   -0.5238152145    3.9975693921
S        6.1143216043   -3.6826263062    3.3102950580
H        1.5171510404   -1.5819730718   -1.1291883744
H       -0.1214056148   -0.1153337229    0.0080605411
H        3.3539696918   -2.5646601295    0.1016631058
H        0.1179702417    0.3481144317    2.4093862909
H        4.9448567879   -3.4274079993    1.1217841776
H        5.5898050859   -2.7150219831    5.5635053953
H        1.1942563188    0.0616310022    4.2286365871
19   

C        1.5756664209   -1.4584749411   -0.0467070466
C        0.6884161609   -0.5879371152    0.5723792881
C        2.6400387578   -1.9991265267    0.6765196715
C        0.8749935332   -0.2620325462    1.9135722862
C        5.0438391218   -2.9391119965    2.1382302054
C        5.1401746061   -2.9387317206    4.5624601285
C        2.8524463632   -1.6844867359    2.0402538617
C        1.9398169773   -0.7938169836    2.6542735456
C        3.9818756343   -2.3175588396    2.7538159092
N        4.0602336826   -2.3312744354    4.1388685593
O        2.0525043984   -0.3816209198    3.9519111819
S        6.1826494907   -3.5674958746    3.2989956217
H        1.4366685823   -1.7221910439   -1.0891275856
H       -0.1415154066   -0.1659551636    0.0159911266
H        3.2882173972   -2.6899396173    0.1531637894
H        0.1792985595    0.4228686395    2.3820148989
H        5.1845072653   -3.0197497834    1.0704640439
H        5.3725077233   -3.0464432159    5.6154768727
H        1.3048802775    0.1846642362    4.1977916655
19   

C        2.0376316764   -0.4603494452    0.0386727812
C        0.7799031154   -0.3354779162    0.6190389482
C        3.0744198556   -1.0692540831    0.7484385541
C        0.5689172136   -0.8157567536    1.9111402072
C        5.3266798846   -1.9331016710    2.5160748910
C        4.9375979724   -3.6935759223    4.1441840219
C        2.8792801933   -1.5699764579    2.0541494782
C        1.6001353876   -1.4262038984    2.6375555159
C        4.0058221477   -2.2274820184    2.7466454074
N        3.8026419027   -3.2410719359    3.6713969207
O        1.3246005770   -1.8231252880    3.9156188314
S        6.3768817366   -2.9280424293    3.4887382860
H        2.2097933589   -0.0912405252   -0.9661012801
H       -0.0295421760    0.1347194913    0.0712198401
H        4.0355502070   -1.1704949957    0.2585526878
H       -0.4118278699   -0.7014019073    2.3556051462
H        5.6744810049   -1.1697849521    1.8342682757
H        4.9857689875   -4.4856101529    4.8822930341
H        0.3782857735   -1.7294028609    4.1060632778
19   

C        2.0238897014   -0.5515168603   -0.0100162401
C        0.7818242318   -0.3666930463    0.5922417536
C        3.0620949873   -1.1521394888    0.7057598424
C        0.5875272218   -0.7762728941    1.9125645150
C        5.3007594440   -1.8001265068    2.6558350975
C        4.9480855178   -3.7768959008    4.0274330027
C        2.8761670080   -1.5861203729    2.0330091111
C        1.6211216055   -1.3768272286    2.6427084933
C        3.9996448211   -2.2186634689    2.7538679696
N        3.8134622705   -3.3577751392    3.5227665322
O        1.3867143639   -1.7104300649    3.9468989413
S        6.3599552777   -2.8252245604    3.5865172656
H        2.1824347327   -0.2338892207   -1.0344094392
H       -0.0279021122    0.0972546285    0.0395522555
H        4.0176124257   -1.3000749653    0.2153417700
H       -0.3784433976   -0.6138983251    2.3740913480
H        5.6203183156   -0.9399036549    2.0836589713
H        5.0133228080   -4.6514691838    4.6640854846
H        0.4461982410   -1.6070327820    4.1611737729
19   

C        1.9988866412   -0.6496083749   -0.0468864469
C        0.7808580701   -0.3908071930    0.5800427366
C        3.0375092249   -1.2490995913    0.6700798621
C        0.6102772556   -0.7250687179    1.9257783649
C        5.2499002911   -1.6931707004    2.8212558122
C        4.9785701990   -3.8553783552    3.9039731359
C        2.8697709514   -1.6077844189    2.0193097981
C        1.6449220078   -1.3236910473    2.6551628275
C        3.9906741597   -2.2258010665    2.7621589508
N        3.8499678210   -3.4689838448    3.3602466551
O        1.4504788352   -1.5965968495    3.9799095570
S        6.3261678510   -2.7408765807    3.7061042046
H        2.1384537383   -0.3889178649   -1.0899250555
H       -0.0283969330    0.0724903755    0.0261331489
H        3.9788794775   -1.4527195005    0.1717828166
H       -0.3357353809   -0.5067029281    2.4051923655
H        5.5268186951   -0.7458477056    2.3787988396
H        5.0777188528   -4.7979982344    4.4294448235
H        0.5204457509   -1.4606217676    4.2215779437
19   

C        1.9667014736   -0.7588031486   -0.0876254694
C        0.7778527490   -0.4198811585    0.5586522653
C        3.0063905506   -1.3526360170    0.6330732268
C        0.6362203428   -0.6711137067    1.9262686221
C        5.1634975807   -1.5977477030    3.0336926243
C        5.0291006655   -3.9134770422    3.7715671070
C        2.8668449360   -1.6203856579    2.0047082277
C        1.6725214247   -1.2635770587    2.6578070826
C        3.9855171922   -2.2360653805    2.7606188658
N        3.9215553936   -3.5605277351    3.1647263900
O        1.5137315415   -1.4699788992    3.9992281537
S        6.2594029530   -2.6586951365    3.8777339885
H        2.0827803000   -0.5645382350   -1.1478701739
H       -0.0316691016    0.0393585318    0.0017700204
H        3.9268553991   -1.6193517324    0.1254340210
H       -0.2878093916   -0.3952506153    2.4187483097
H        5.3708295684   -0.5717181031    2.7611752525
H        5.1803876632   -4.9091742661    4.1718239119
H        0.5978152646   -1.2865950085    4.2637815866
19   

C        1.9275084944   -0.8780788760   -0.1229699929
C        0.7746318464   -0.4545056890    0.5389342897
C        2.9746925590   -1.4541170617    0.6015329636
C        0.6739883408   -0.6093037073    1.9246060287
C        5.0344581444   -1.5357150799    3.3047936372
C        5.0908799931   -3.9460575127    3.6409221998
C        2.8824623781   -1.6076483833    1.9937801459
C        1.7184311544   -1.1834384250    2.6589806755
C        3.9972624715   -2.2333371132    2.7517472240
N        4.0352778011   -3.6058348908    2.9408208167
O        1.5982853625   -1.3109332043    4.0141990756
S        6.1371767763   -2.6129728715    4.1186711355
H        2.0094437302   -0.7649064220   -1.1980403292
H       -0.0403218059   -0.0085988079   -0.0208439439
H        3.8655552485   -1.7925697047    0.0838534138
H       -0.2252753289   -0.2758636174    2.4272133669
H        5.1359030103   -0.4604153691    3.2464350628
H        5.3068802959   -4.9750964592    3.9034938121
H        0.6982165672   -1.0799980492    4.2964602582
19   

C        1.8838583820   -0.9847744875   -0.1380537982
C        0.7670292297   -0.4820941309    0.5294004997
C        2.9396743052   -1.5386787452    0.5909531571
C        0.7089844438   -0.5418607039    1.9245470506
C        4.8738753221   -1.5518504114    3.5671597834
C        5.1600389721   -3.9671398497    3.4865347653
C        2.9000273873   -1.5809635377    1.9938930511
C        1.7627685086   -1.0938961785    2.6626528570
C        4.0094630124   -2.2203129983    2.7454646706
N        4.1693332474   -3.5971346177    2.7104604217
O        1.6754592728   -1.1411089444    4.0256388139
S        5.9829655958   -2.6592992562    4.3300192192
H        1.9305914433   -0.9526627996   -1.2206684904
H       -0.0547760597   -0.0530958525   -0.0335573979
H        3.7990844442   -1.9460464765    0.0695027373
H       -0.1663559300   -0.1548891797    2.4310102197
H        4.8453082999   -0.4823078011    3.7261172828
H        5.4519685233   -5.0045244616    3.6011847882
H        0.7899765009   -0.8668190364    4.3160288311
19   

C        1.8660439429   -1.0522180774   -0.1394390867
C        0.7800250290   -0.4777536670    0.5190310038
C        2.9191053330   -1.5969975461    0.5997833258
C        0.7495943244   -0.4593686589    1.9155953921
C        4.7292137425   -1.6237002114    3.7642610896
C        5.2583991997   -3.9562312982    3.3227311637
C        2.9133908422   -1.5578393019    2.0047734382
C        1.8007401122   -1.0028698868    2.6641801094
C        4.0132735737   -2.2063006718    2.7544126991
N        4.3103826039   -3.5406842167    2.5168128188
O        1.7265251788   -0.9791875554    4.0287516185
S        5.8688073794   -2.7503982147    4.4497610984
H        1.8910471660   -1.0842699822   -1.2227680611
H       -0.0402203216   -0.0557910038   -0.0514661447
H        3.7524287837   -2.0623006458    0.0840945554
H       -0.1046028864   -0.0200061784    2.4153891299
H        4.5785144503   -0.6046635615    4.0946377800
H        5.6384624987   -4.9708678028    3.2982108156
H        0.8542004284   -0.6585934380    4.3122047370
19   

C        1.8461862960   -1.1071170488   -0.1407372490
C        0.7901498464   -0.4632096117    0.4992911000
C        2.8880068169   -1.6523381631    0.6131953628
C        0.7793348082   -0.3757841708    1.8925824903
C        4.6017069902   -1.7064187538    3.8999339545
C        5.3778221729   -3.8938477177    3.1775501871
C        2.9038884267   -1.5510405945    2.0175953122
C        1.8188613394   -0.9201350578    2.6572641841
C        3.9978860273   -2.1954652065    2.7720167351
N        4.4428247271   -3.4490842495    2.3721973756
O        1.7458588554   -0.8283554781    4.0190912573
S        5.8003918026   -2.8185732783    4.5034518223
H        1.8578710859   -1.1920148567   -1.2214328585
H       -0.0218661076   -0.0405080393   -0.0823275231
H        3.6977679175   -2.1658294287    0.1054879888
H       -0.0530840529    0.1178370988    2.3783052595
H        4.3495458257   -0.7572008050    4.3534306779
H        5.8564234378   -4.8560168103    3.0371431546
H        0.8896283093   -0.4528265598    4.2841640241
19   

C        1.8195915806   -1.1736510487   -0.1341851709
C        0.8020321152   -0.4579298387    0.4880180735
C        2.8455474105   -1.7322156062    0.6308110004
C        0.8151884789   -0.3112293235    1.8750237348
C        4.4936344328   -1.8275399066    4.0007153912
C        5.5079878481   -3.8231177552    3.0597664394
C        2.8852784093   -1.5821581813    2.0340514310
C        1.8383270413   -0.8688231825    2.6530040658
C        3.9770513763   -2.2214147237    2.7919360845
N        4.5700323002   -3.3641459487    2.2665726251
O        1.7673124696   -0.7126276129    4.0086968628
S        5.7637939400   -2.8972803820    4.5302674651
H        1.8159839867   -1.3018744132   -1.2106650362
H        0.0022135136   -0.0238225627   -0.1020476303
H        3.6252057741   -2.2908293233    0.1238310717
H        0.0116005907    0.2402397367    2.3469018290
H        4.1598281489   -0.9597111383    4.5523514561
H        6.0859224762   -4.7093877402    2.8251478595
H        0.9362078639   -0.2708952519    4.2511306281
19   

C        1.7713227753   -1.2485008373   -0.1249637746
C        0.7974217682   -0.4626230308    0.4780337734
C        2.7841112937   -1.8174700072    0.6490174639
C        0.8428452832   -0.2552704660    1.8551566789
C        4.3732468621   -1.9765798878    4.0880612189
C        5.6230593748   -3.7283420406    2.9704537698
C        2.8557750506   -1.6159827465    2.0485475311
C        1.8528328412   -0.8222540825    2.6444380713
C        3.9477419450   -2.2509626867    2.8090124676
N        4.6850494027   -3.2543645711    2.1872594916
O        1.7967090858   -0.5883426219    3.9886550591
S        5.7117258219   -2.9894688687    4.5580760637
H        1.7461864640   -1.4216657507   -1.1948567802
H        0.0079505961   -0.0190473943   -0.1188954501
H        3.5266408067   -2.4231586833    0.1409707140
H        0.0729495095    0.3540497233    2.3118438400
H        3.9540777623   -1.2198587900    4.7342525445
H        6.2973126701   -4.5178706467    2.6597574064
H        1.0029050900   -0.0704542104    4.2040777253
19   

C        1.6904796797   -1.3422051191   -0.1042462554
C        0.7646590034   -0.4925129841    0.4856443990
C        2.7059807260   -1.9085722631    0.6676018467
C        0.8634544555   -0.2161264716    1.8470696772
C        4.2373419451   -2.1651728910    4.1486918342
C        5.7281399743   -3.6102695266    2.9005255286
C        2.8292847410   -1.6439767760    2.0548688362
C        1.8779748236   -0.7775463467    2.6351328430
C        3.9262528502   -2.2756264943    2.8111664720
N        4.8000085815   -3.1118295343    2.1214577181
O        1.8832738221   -0.4405958154    3.9576894308
S        5.6381269565   -3.1102762670    4.5766708816
H        1.6265644542   -1.5668361002   -1.1629044483
H       -0.0264850753   -0.0497238730   -0.1096549251
H        3.4055395715   -2.5657763445    0.1629721153
H        0.1336705342    0.4485460289    2.2922884976
H        3.7008353409   -1.5738623674    4.8741251224
H        6.4958745303   -4.2827152134    2.5359881255
H        1.1472309238    0.1643649814    4.1501101776
