40

C     -0.11681   -2.54847   -1.61609
C      2.12677   -3.21878   -1.05230
C     -0.13558   -3.46725   -2.66748
C      2.12343   -4.14145   -2.09963
C      2.52903   -5.06194    2.43993
C      2.30462   -3.70545    2.51436
C      0.63882   -4.72512    1.48058
C      1.01223   -2.40860   -0.79860
C      0.98924   -4.25889   -2.90201
C      0.71670    0.68406   -1.01928
C      0.91286    1.19334    0.38194
C      0.23261   -0.15296    0.14759
C     -3.21398    0.78197    2.36667
C      0.43263   -2.22598    1.63837
C     -1.78668    0.28326    2.13682
C      1.01682   -1.47452    0.40934
N      1.48197   -5.68912    1.79271
N      1.07973   -3.49482    1.90316
O      2.39486   -1.17180    0.66625
S     -1.57001   -0.13270    0.35923
Cl     0.97175   -5.41932   -4.22109
H     -1.00352   -1.94978   -1.44183
H      3.00151   -3.13714   -0.41857
H     -1.01459   -3.56691   -3.29647
H      2.98865   -4.77104   -2.28077
H      3.37621   -5.61918    2.81900
H      2.88426   -2.89599    2.93284
H     -0.29490   -4.84267    0.94502
H     -0.02857    1.16022   -1.64701
H      1.59248    0.30465   -1.53666
H      1.92886    1.21430    0.76047
H      0.28161    2.00660    0.72448
H     -3.41598    1.68415    1.78211
H     -3.95084    0.02258    2.08634
H     -3.36222    1.01683    3.42595
H      0.52090   -1.58724    2.52466
H     -0.62758   -2.41593    1.46983
H     -1.58911   -0.59650    2.75507
H     -1.05675    1.05547    2.39740
H      2.43814   -0.68985    1.50723
