55

C     -0.15615    3.45328   -1.12357
C      0.57835    2.48675   -0.39425
C     -1.37500    3.16480   -1.74552
C     -1.12015    0.89989   -0.87851
C      0.10254    1.18170   -0.26001
C     -1.81236   -0.34954   -0.92467
C     -1.85769    1.85643   -1.61018
C     -2.94776   -0.14064   -1.67141
C     -1.23808   -1.50699   -0.16376
C      2.31611    0.10988    0.34934
C      2.39775   -2.40062    0.44171
C      0.78252    0.02416    0.45934
C      3.03811   -1.09722    0.97177
C      0.29985   -1.35414   -0.10569
C      0.25012   -4.59084    3.71646
C     -5.57186   -1.60199   -3.76693
C      3.99730    0.15971    4.85003
C     -4.07091   -1.05402   -2.02308
C      3.09817   -1.03389    2.50573
C      1.03385   -4.11493    2.48764
C      0.40345   -2.86047    1.87426
N     -3.00110    1.20754   -2.05646
N      0.94234   -2.50039    0.55875
O     -4.45512   -0.81632   -3.37841
S      4.27974    0.26338    3.05096
H      0.24702    4.45952   -1.20648
H      1.52356    2.78221    0.05192
H     -1.91145    3.92792   -2.30374
H     -1.65466   -1.50842    0.85031
H     -1.47965   -2.47686   -0.61304
H      2.57518    0.16609   -0.71556
H      2.67884    1.03359    0.80811
H      2.63149   -2.46188   -0.62994
H      2.86318   -3.27308    0.90572
H      0.49636    0.06912    1.52022
H      4.07632   -1.09522    0.61177
H      0.64595   -1.38737   -1.14884
H      0.20399   -3.80969    4.48433
H     -0.77963   -4.85798    3.45310
H      0.71839   -5.47184    4.16740
H     -5.79806   -1.34876   -4.80492
H     -6.45201   -1.38706   -3.14203
H     -5.34728   -2.67687   -3.70006
H      4.65759    0.88832    5.32677
H      4.23942   -0.83660    5.23213
H      2.96139    0.40667    5.10110
H     -3.75389   -2.09775   -1.88284
H     -4.94162   -0.87998   -1.36742
H      3.43253   -1.99351    2.91402
H      2.12114   -0.80454    2.93846
H      1.06009   -4.90422    1.72686
H      2.07071   -3.92550    2.78381
H     -0.66029   -3.07545    1.74115
H      0.45571   -2.04146    2.61382
H     -3.60246    1.52451   -2.80518
