24   
Generated by ForceBalance from scan.xyz: Frame 1 of 24
C        5.7658935575    1.2977489387    1.0061780209
C        5.5435059231   -0.0721187181    0.8386517695
C        4.6889152259    2.1798867066    0.8692359511
C        4.2738423552   -0.5747917875    0.5401949731
C        3.4169832244    1.6949397755    0.5668220221
C        3.1961138041    0.3155542036    0.3968318167
C        1.4359820945   -1.3487377991   -0.2831582840
C       -0.7080234640   -0.2105049596   -0.8916275626
C       -0.4774678344   -2.6806453195   -0.9993930405
N        1.8750951588   -0.0864038777    0.0996019172
N        0.1575717811   -1.3785997652   -0.8203178027
O        2.1268549161   -2.3625271422   -0.1693736930
H        6.7584501497    1.6722132691    1.2407235234
H        6.3698550471   -0.7706720411    0.9448695581
H        4.8362619580    3.2494656462    0.9954431204
H        4.1071081495   -1.6358286885    0.4187215514
H        2.5865574160    2.3915945913    0.4595692268
H       -1.6013625014   -0.4728114102   -1.4616827132
H       -0.2259568327    0.6161043184   -1.4260081982
H       -1.0374455076    0.1416321656    0.0978261897
H       -0.9518560439   -2.7320628344   -1.9855401562
H       -1.2416200709   -2.8615756613   -0.2307280513
H        0.2855636210   -3.4533557027   -0.9287559280
H        1.2275276482    0.6819124473    0.0075318821
24   
Generated by ForceBalance from scan.xyz: Frame 2 of 24
C        5.7581319544    1.3068029455    0.8596747758
C        5.5367067607   -0.0687619949    0.7433674816
C        4.6617079609    2.1737235144    0.8082666167
C        4.2503610201   -0.5905658924    0.5801795238
C        3.3724938640    1.6693579835    0.6368657631
C        3.1538298683    0.2852084321    0.5156369375
C        1.3992215018   -1.3836636187   -0.1329715542
C       -0.6390588101   -0.1779195576   -0.9497360339
C       -0.4708863807   -2.6519060870   -1.0505847715
N        1.8151129723   -0.1457757061    0.3567985024
N        0.1805013698   -1.3709333981   -0.7926105659
O        2.0686196698   -2.4092901221   -0.0034840643
H        6.7637507146    1.6964550686    0.9914348798
H        6.3776536291   -0.7564678456    0.7872540564
H        4.8070276170    3.2472367580    0.8982385338
H        4.0844726509   -1.6564216484    0.5037304603
H        2.5272462472    2.3549869679    0.5942268977
H       -1.4487365884   -0.4013813842   -1.6475196689
H       -0.0653044530    0.6470239294   -1.3854963280
H       -1.0982877126    0.1576068656   -0.0071161977
H       -0.8358974191   -2.6833715494   -2.0829959431
H       -1.3199961324   -2.8114248321   -0.3716347787
H        0.2564192031   -3.4482278294   -0.9048774085
H        1.1636249322    0.6195672527    0.2599558835
24   
Generated by ForceBalance from scan.xyz: Frame 3 of 24
C        5.7271478685    1.3477936626    0.6712528223
C        5.5286758859   -0.0324962463    0.5642800621
C        4.6130319215    2.1880090444    0.7646245323
C        4.2445685270   -0.5833004245    0.5519146033
C        3.3240431006    1.6537707151    0.7412237326
C        3.1285841936    0.2662987524    0.6278763529
C        1.3838367548   -1.4211535337    0.0465132613
C       -0.4590138978   -0.1059641964   -1.0303937796
C       -0.4406249759   -2.5887963639   -1.0815391812
N        1.7940730959   -0.2105245867    0.6210499008
N        0.2345609861   -1.3473091006   -0.7172337368
O        2.0140720994   -2.4675304431    0.1975949193
H        6.7315382977    1.7616796105    0.6870502215
H        6.3854707852   -0.6986970580    0.4997496946
H        4.7433140712    3.2637282840    0.8516164050
H        4.0949811378   -1.6533818494    0.4896559449
H        2.4630439111    2.3174128979    0.8089760102
H       -1.1240587224   -0.2835339944   -1.8789359731
H        0.2442265840    0.6757071961   -1.3323530345
H       -1.0780979431    0.2636965933   -0.1984428302
H       -0.5595152942   -2.6522778339   -2.1695376079
H       -1.4332703164   -2.6449848488   -0.6156098872
H        0.1653295689   -3.4273321326   -0.7433229513
H        1.1186736744    0.5407846827    0.5881530517
24   
Generated by ForceBalance from scan.xyz: Frame 4 of 24
C        5.6171022463    1.3526723835    0.5075588548
C        5.4422201647   -0.0334058804    0.4311216608
C        4.4997842810    2.1689451255    0.7088806196
C        4.1769394577   -0.6119616139    0.5548351364
C        3.2267501361    1.6066188430    0.8207318043
C        3.0560744983    0.2144115082    0.7381943795
C        1.3342244425   -1.4989857705    0.2342150737
C       -0.2690015716   -0.0816897943   -1.0718843098
C       -0.4027704209   -2.5616515418   -1.1150926172
N        1.7440303352   -0.3083592856    0.8718790368
N        0.2804314614   -1.3614774602   -0.6438516985
O        1.9019360376   -2.5709270250    0.4338613318
H        6.6078809413    1.7891746367    0.4176293036
H        6.3037066097   -0.6802813915    0.2847021262
H        4.6140152382    3.2480159817    0.7747375545
H        4.0468478540   -1.6868486804    0.5193577980
H        2.3614586491    2.2504540206    0.9723277695
H       -0.7575374129   -0.2187731121   -2.0402277998
H        0.5217181867    0.6596956125   -1.2105358858
H       -1.0223679531    0.3156785073   -0.3749697580
H       -0.3480884766   -2.6285564535   -2.2082127682
H       -1.4588568181   -2.5482629774   -0.8164694000
H        0.0857038718   -3.4338178529   -0.6842715872
H        1.0466706926    0.4252849179    0.8690971480
24   
Generated by ForceBalance from scan.xyz: Frame 5 of 24
C        5.4818983271    1.3388146720    0.2637205545
C        4.9400689538    0.2746326605   -0.4635112409
C        4.6919169189    1.9699368114    1.2312471381
C        3.6302261404   -0.1535930422   -0.2349085549
C        3.3824367242    1.5485365395    1.4662400491
C        2.8375079294    0.4799637877    0.7358403462
C        1.1518075313   -1.2911733059    0.7608419327
C        0.2513795541   -0.5860704544   -1.4580322122
C        0.1275188456   -2.9406526389   -0.7076622848
N        1.4803138606    0.1102101962    0.9419792145
N        0.4853529210   -1.5609415174   -0.3993338820
O        1.3748221082   -2.1223503445    1.6356538801
H        6.5017628709    1.6670603975    0.0845353431
H        5.5412504014   -0.2333395980   -1.2135195392
H        5.0968696923    2.7957185518    1.8108378942
H        3.2304436328   -0.9909748134   -0.7998339854
H        2.7763051644    2.0479037873    2.2195127610
H        0.8894604187   -0.7927817229   -2.3271915491
H        0.4610799530    0.4158146975   -1.0905132134
H       -0.7947645703   -0.6414409904   -1.7804048932
H        0.6706445386   -3.2896405312   -1.5950842608
H       -0.9475295616   -3.0100952243   -0.9102596678
H        0.3780953948   -3.5727578199    0.1422070158
H        1.2184864792    0.3339067076    1.8999709335
24   
Generated by ForceBalance from scan.xyz: Frame 6 of 24
C        5.3843477752    1.3242236851    0.1477127427
C        4.8508629569    0.1939542080   -0.4769669367
C        4.6169594943    1.9958311936    1.1070283408
C        3.5702096686   -0.2648532155   -0.1551749480
C        3.3352206312    1.5505471476    1.4293435585
C        2.7997858856    0.4118108014    0.8034225992
C        1.0725708322   -1.3407930372    0.8714536684
C        0.4012134711   -0.5203548204   -1.3899625078
C        0.1693163249   -2.9039316658   -0.7630228775
N        1.4716545193    0.0177565766    1.1291656403
N        0.5391462925   -1.5502508719   -0.3684725545
O        1.1223522377   -2.1960573768    1.7522955560
H        6.3817310225    1.6737763310   -0.1032003367
H        5.4365505359   -0.3465734375   -1.2163827308
H        5.0161616165    2.8749177852    1.6066211449
H        3.1836612533   -1.1594358718   -0.6335225868
H        2.7404448394    2.0848433371    2.1672811760
H        1.1232284914   -0.6693668248   -2.2031002305
H        0.5584308941    0.4627415159   -0.9518251347
H       -0.6084565624   -0.5649748874   -1.8143647848
H        0.7664303170   -3.2293032722   -1.6244407941
H       -0.8900188645   -2.9372393150   -1.0438251968
H        0.3406417391   -3.5782771254    0.0741141969
H        1.3083066760    0.1706365633    2.1217960316
24   
Generated by ForceBalance from scan.xyz: Frame 7 of 24
C        5.2408755659    1.2618254670    0.0446259780
C        4.7653173884    0.0511148363   -0.4666330042
C        4.4514375590    1.9688938194    0.9588156052
C        3.5225594070   -0.4545166024   -0.0745948325
C        3.2023976910    1.4803052933    1.3434913637
C        2.7271644917    0.2603422197    0.8343358390
C        0.9555865248   -1.4776611704    0.8995367426
C        0.4975181975   -0.5149731379   -1.3618531335
C        0.1425439269   -2.9198022343   -0.8867927846
N        1.4406216539   -0.1855261118    1.2529719495
N        0.5490067439   -1.6081490747   -0.4007010743
O        0.8360916218   -2.3627379821    1.7465793278
H        6.2104537264    1.6457202554   -0.2597339360
H        5.3708237150   -0.5172539807   -1.1681828501
H        4.8038601963    2.9118207688    1.3691369639
H        3.1838970439   -1.4114370713   -0.4586663397
H        2.5842884003    2.0447341547    2.0380711601
H        1.3267144684   -0.5658906388   -2.0791460217
H        0.5400554239    0.4420677082   -0.8449979247
H       -0.4447577160   -0.5734181234   -1.9182077223
H        0.7236202523   -3.1908582510   -1.7770813177
H       -0.9213479474   -2.9167844226   -1.1550380246
H        0.3074648812   -3.6573184471   -0.1031529753
H        1.3405318831   -0.0999577305    2.2609730751
24   
Generated by ForceBalance from scan.xyz: Frame 8 of 24
C        5.1850289559    1.2841571544    0.0158544446
C        4.7275209794    0.0839259693   -0.5355617004
C        4.3696577358    1.9720685586    0.9217089784
C        3.4753729215   -0.4314870787   -0.1893802243
C        3.1098432102    1.4748717144    1.2578060819
C        2.6525187470    0.2655746319    0.7086912166
C        0.7528070414   -1.3646338422    0.5871105042
C        0.6093521416   -0.2161083196   -1.6316191383
C        0.0215317623   -2.6062560087   -1.3713232745
N        1.3641508889   -0.1972405666    1.0987911398
N        0.5431698792   -1.3872925399   -0.7675727996
O        0.3861070235   -2.2629013961    1.3466712835
H        6.1618547299    1.6762528052   -0.2529136965
H        5.3539780320   -0.4683192902   -1.2316024011
H        4.7091450276    2.9068034035    1.3606018469
H        3.1448425960   -1.3778462859   -0.6047483123
H        2.4680983717    2.0234133223    1.9433661092
H        1.4567638702   -0.2737359065   -2.3259119515
H        0.7074034643    0.6907437659   -1.0378800890
H       -0.3154426849   -0.1490797550   -2.2171877954
H        0.5612180376   -2.8162375064   -2.3019751485
H       -1.0472213489   -2.5059219645   -1.6026068717
H        0.1501056334   -3.4351953271   -0.6770978891
H        1.2392098126   -0.1956435792    2.1065121668
24   
Generated by ForceBalance from scan.xyz: Frame 9 of 24
C        5.2740765701    1.3926287872    0.0528172516
C        4.8116006059    0.1767411227   -0.4598034564
C        4.4982362795    2.0715540251    0.9987661509
C        3.5941947801   -0.3631759849   -0.0373876568
C        3.2715686445    1.5500080220    1.4124057404
C        2.8090150500    0.3262942795    0.9002477871
C        0.8315827798   -1.2565022321    0.8894344626
C        0.7252123977   -0.1874237194   -1.3662668243
C        0.0198522392   -2.5254150143   -1.0051028285
N        1.5676015539   -0.1663230881    1.3807171770
N        0.6946731009   -1.3450490068   -0.4769725724
O        0.3276408762   -2.0644611483    1.6720523570
H        6.2243707323    1.8032063205   -0.2766394214
H        5.4087660922   -0.3688104076   -1.1862213563
H        4.8417520371    3.0176941372    1.4090943836
H        3.2575449619   -1.3186805455   -0.4248651112
H        2.6596619644    2.0911548100    2.1304189549
H        1.4943815602   -0.2992503714   -2.1393096101
H        0.9278061717    0.7242990064   -0.8080282913
H       -0.2500549395   -0.0796913786   -1.8579193328
H        0.4144447905   -2.7446497539   -2.0026874648
H       -1.0650619852   -2.3701656111   -1.0810349125
H        0.1998304435   -3.3739837725   -0.3465154821
H        1.4573503411   -0.1132578906    2.3873518407
24   
Generated by ForceBalance from scan.xyz: Frame 10 of 24
C        5.2385660735    1.4212001542    0.0298237913
C        4.8125360691    0.1869747021   -0.4723825017
C        4.4519386790    2.0770426437    0.9824302347
C        3.6208867802   -0.3929099537   -0.0324894199
C        3.2485213404    1.5155805972    1.4134462559
C        2.8221571184    0.2754627275    0.9100602739
C        0.7874002045   -1.2644501161    0.8891901045
C        0.7850625492   -0.2446015588   -1.3845131859
C       -0.0098403638   -2.5394209324   -0.9962883855
N        1.6159102492   -0.2684630493    1.4115411816
N        0.7454227310   -1.3983767766   -0.4858670164
O        0.1487938036   -1.9897083564    1.6541835737
H        6.1700028915    1.8629044977   -0.3129459378
H        5.4199292186   -0.3407412085   -1.2034773367
H        4.7678898818    3.0360439582    1.3849015965
H        3.3083132137   -1.3596526251   -0.4118458118
H        2.6280011564    2.0386095342    2.1375481439
H        1.4960947602   -0.4098478088   -2.2016462585
H        1.0798991664    0.6573648153   -0.8529246363
H       -0.2107990391   -0.0772446705   -1.8165074066
H        0.3312185466   -2.7559442908   -2.0134633500
H       -1.0897506006   -2.3387622476   -1.0187407570
H        0.1631205301   -3.4087796897   -0.3628527159
H        1.4550417959   -0.1560976528    2.4052935710
24   
Generated by ForceBalance from scan.xyz: Frame 11 of 24
C        5.2033763427    1.4580426052    0.0108374973
C        4.8181965484    0.2053221418   -0.4800348086
C        4.4085580186    2.0852648900    0.9753497141
C        3.6591472722   -0.4195265408   -0.0172462806
C        3.2356662658    1.4776009342    1.4289961538
C        2.8486049510    0.2213363502    0.9348521581
C        0.7627254642   -1.2655549160    0.8975427296
C        0.8466049506   -0.2600668889   -1.3756977850
C       -0.0414938798   -2.5146331916   -0.9965658382
N        1.6837943977   -0.3824156435    1.4583135068
N        0.7764444096   -1.4184397129   -0.4810522625
O        0.0201259454   -1.9139324378    1.6369308213
H        6.1106167065    1.9350008157   -0.3492019179
H        5.4339318717   -0.3006022387   -1.2194816283
H        4.6937974923    3.0570144596    1.3700940757
H        3.3758622820   -1.3993091918   -0.3863128257
H        2.6089693479    1.9784718755    2.1634934170
H        1.5469453361   -0.4448693829   -2.1975518626
H        1.1744131261    0.6309496806   -0.8448412989
H       -0.1461100507   -0.0579799077   -1.8006176660
H        0.2950738843   -2.7489017123   -2.0112647043
H       -1.1084159487   -2.2543578652   -1.0262663842
H        0.0783595565   -3.3936250182   -0.3639775822
H        1.4710631058   -0.2016614964    2.4316816965
24   
Generated by ForceBalance from scan.xyz: Frame 12 of 24
C        4.6916955324    1.4049280672    1.6492705516
C        4.2418975907    0.0795402403    1.6873858532
C        4.3920451138    2.1973156380    0.5371906131
C        3.5045094653   -0.4540872335    0.6301718010
C        3.6351931016    1.6782462309   -0.5165056292
C        3.1810094626    0.3508701166   -0.4752180755
C        1.3474552275   -0.9902686584   -1.6675711009
C        0.3759924878   -0.4538841671    0.5516397170
C       -0.1879459536   -2.5196897636   -0.6287249676
N        2.4693458906   -0.1659182518   -1.5815673498
N        0.7684830846   -1.4228831116   -0.4782284152
O        0.9778388146   -1.3822759949   -2.7750103476
H        5.2724217013    1.8115950036    2.4724350831
H        4.4814490653   -0.5509820664    2.5399587033
H        4.7376363089    3.2268023553    0.4906826224
H        3.1716178674   -1.4863676561    0.6514408693
H        3.3863558566    2.3035805233   -1.3711310245
H        0.5777063145   -0.8532119847    1.5513298850
H       -0.6982104692   -0.2356419254    0.4717677515
H        0.9195448403    0.4822154676    0.4461783075
H       -1.1482600769   -2.1795621729   -1.0397083214
H       -0.3595966634   -2.9613322517    0.3577426971
H        0.2207175571   -3.2777185279   -1.2965626720
H        2.6734655835    0.2505113864   -2.4822932325
24   
Generated by ForceBalance from scan.xyz: Frame 13 of 24
C        4.7362364558    1.3734469095    1.6497158858
C        4.2383448763    0.0660447610    1.6834052780
C        4.4402230125    2.1866485462    0.5511875723
C        3.4580850476   -0.4318870518    0.6386025802
C        3.6428117158    1.7056471906   -0.4895307152
C        3.1428403331    0.3936559980   -0.4535661582
C        1.3621573203   -1.0122031668   -1.6455910357
C        0.3264431317   -0.4404286830    0.5407137889
C       -0.1508655422   -2.5592356159   -0.5976925149
N        2.3840797223   -0.0695820552   -1.5516406177
N        0.7509264416   -1.4162683198   -0.4669415726
O        1.0793417684   -1.4898325007   -2.7456798181
H        5.3485027434    1.7506130801    2.4640261166
H        4.4721121234   -0.5817995674    2.5245230653
H        4.8205477295    3.2039191331    0.5066928778
H        3.0906898710   -1.4521069961    0.6613403739
H        3.3966094918    2.3478315159   -1.3322102943
H        0.5510296764   -0.8033835619    1.5495659105
H       -0.7562860204   -0.2700835269    0.4630872695
H        0.8296871989    0.5141780812    0.4043899301
H       -1.1199148961   -2.2732812294   -1.0291169655
H       -0.3164528361   -2.9831236071    0.3975794750
H        0.3003740311   -3.3138596290   -1.2413212076
H        2.6373006695    0.2860107915   -2.4653420210
24   
Generated by ForceBalance from scan.xyz: Frame 14 of 24
C        4.8003707291    1.3595028045    1.6618089296
C        4.2619929444    0.0684571996    1.6765588653
C        4.5141182201    2.2041101172    0.5842146148
C        3.4515587129   -0.3821089801    0.6323847399
C        3.6877389913    1.7702972844   -0.4541497558
C        3.1493215977    0.4731348961   -0.4398698933
C        1.4284178215   -0.9725143255   -1.6464146944
C        0.3066437096   -0.3608609572    0.4936168242
C       -0.0972225046   -2.5237543563   -0.6039536048
N        2.3521160609    0.0694151740   -1.5383417594
N        0.7519176431   -1.3404159140   -0.4980286681
O        1.2633025958   -1.5317399165   -2.7322679593
H        5.4351196571    1.7006005936    2.4748037005
H        4.4860127459   -0.6038337674    2.5010164091
H        4.9246190174    3.2101533938    0.5551496157
H        3.0546909280   -1.3914053406    0.6419883181
H        3.4480650017    2.4370597488   -1.2792649131
H        0.5708698292   -0.6817769357    1.5074410294
H       -0.7841631653   -0.2469825854    0.4363732874
H        0.7587275372    0.6122219955    0.3149868783
H       -1.0791024904   -2.2852534093   -1.0354695501
H       -0.2430676969   -2.9398012408    0.3979537990
H        0.3843087372   -3.2663029153   -1.2390468155
H        2.6826915570    0.3499021037   -2.4538834604
24   
Generated by ForceBalance from scan.xyz: Frame 15 of 24
C        4.7758800947    1.2852085603    1.6378493720
C        4.2173127100    0.0035167304    1.6539206892
C        4.4683585757    2.1488888515    0.5808168593
C        3.3650582710   -0.4198416551    0.6309091351
C        3.6022878703    1.7419566757   -0.4351413898
C        3.0445545373    0.4526592441   -0.4211215861
C        1.3857126714   -1.0578651675   -1.5949507018
C        0.2005533045   -0.4170106481    0.5095609748
C       -0.1183294436   -2.6311374085   -0.5370711619
N        2.1937267966    0.0861818350   -1.4968683958
N        0.6464428137   -1.3902870890   -0.4831528941
O        1.3461813450   -1.6984149603   -2.6473808140
H        5.4422145290    1.6053397058    2.4339015252
H        4.4564115794   -0.6833599528    2.4619731268
H        4.8937690725    3.1487450541    0.5513755677
H        2.9565565774   -1.4246192938    0.6421184216
H        3.3460460050    2.4231076902   -1.2433102834
H        0.5529366187   -0.6806573771    1.5136214834
H       -0.8963112341   -0.3861401182    0.5218500576
H        0.5663407832    0.5786058572    0.2664814667
H       -1.1218289558   -2.4696621215   -0.9539207127
H       -0.2186213018   -3.0314121566    0.4770666336
H        0.4015287971   -3.3536572213   -1.1648230683
H        2.5531563194    0.3229389004   -2.4150576328
24   
Generated by ForceBalance from scan.xyz: Frame 16 of 24
C        4.7368059720    1.2148865569    1.6380175709
C        4.1440179330   -0.0501317789    1.6855438569
C        4.4006143151    2.0860624286    0.5955809399
C        3.2295897051   -0.4493170256    0.7068382345
C        3.4736375278    1.7030548265   -0.3746327886
C        2.8825707218    0.4295571014   -0.3307665289
C        1.2415422290   -1.1287183535   -1.4075120544
C        0.0156446682   -0.4054124059    0.6508476248
C       -0.2469827971   -2.6844952039   -0.2780119583
N        1.9536507172    0.0913106397   -1.3549421560
N        0.4257442753   -1.3936514430   -0.3379796189
O        1.3226534212   -1.8580995599   -2.3973109200
H        5.4513439805    1.5167277789    2.3986025776
H        4.4036748262   -0.7426998348    2.4823039960
H        4.8518533751    3.0735771758    0.5425524461
H        2.7978769536   -1.4442065211    0.7416344269
H        3.1957367708    2.3905690199   -1.1701279143
H        0.4440963559   -0.6196123121    1.6377770652
H       -1.0775495411   -0.4158944497    0.7371170969
H        0.3273968674    0.5916219921    0.3454527888
H       -1.3045761104   -2.5916375470   -0.5584664072
H       -0.1906084865   -3.0820772031    0.7419143615
H        0.2359707454   -3.3742701419   -0.9683656731
H        2.3133469082    0.2831230303   -2.2849670769
24   
Generated by ForceBalance from scan.xyz: Frame 17 of 24
C        4.8955893144    1.2796250603    1.6379778350
C        4.2506813363    0.0407971389    1.6777918160
C        4.6051166295    2.1629581545    0.5913371467
C        3.3291797423   -0.3206545756    0.6903637162
C        3.6757456126    1.8179443286   -0.3897962339
C        3.0317797336    0.5693528216   -0.3529182803
C        1.5152082894   -1.0249972696   -1.5049551094
C        0.0533979123   -0.4144299947    0.4290587648
C        0.0058264663   -2.6854556125   -0.5585863346
N        2.0834990740    0.2752593066   -1.3738204079
N        0.5660486510   -1.3405939132   -0.5713765903
O        1.8100138492   -1.7512556862   -2.4540366042
H        5.6148889952    1.5518370641    2.4051604300
H        4.4730154762   -0.6623079529    2.4765949435
H        5.0976763750    3.1307620321    0.5421164360
H        2.8613601487   -1.2994258159    0.7215346757
H        3.4385308620    2.5161593857   -1.1894367469
H        0.4420544523   -0.6441204358    1.4293510199
H       -1.0397809986   -0.4878899702    0.4576639356
H        0.3286848895    0.6067055210    0.1720953561
H       -1.0582082170   -2.6614328129   -0.8254114276
H        0.1028964568   -3.1252256553    0.4416443190
H        0.5374433427   -3.3003826179   -1.2828082240
H        2.4494885925    0.5299765812   -2.2873881146
24   
Generated by ForceBalance from scan.xyz: Frame 18 of 24
C        5.0500377924    1.3262304619    1.6122894614
C        4.3067453851    0.1495131774    1.7367688678
C        4.7942661114    2.1801856863    0.5328351371
C        3.3194175168   -0.1769611757    0.8027400879
C        3.8064098016    1.8668482845   -0.4005645625
C        3.0607473694    0.6821162810   -0.2769227057
C        1.5876463870   -0.9327490765   -1.4096704086
C       -0.0584325710   -0.4427949826    0.4037962517
C        0.0698164224   -2.6795199981   -0.6498870416
N        2.0322550974    0.4232225140   -1.2260079365
N        0.5549776014   -1.3060980023   -0.5969434701
O        2.0493497635   -1.6380955928   -2.3037086741
H        5.8187380670    1.5722599360    2.3392528211
H        4.4994121214   -0.5306507262    2.5627097794
H        5.3645536396    3.0983300438    0.4164907211
H        2.7699214747   -1.1077092222    0.9037082502
H        3.6059039220    2.5411303805   -1.2306000816
H        0.2218159698   -0.7505035075    1.4194569287
H       -1.1491535552   -0.5049278661    0.3148266488
H        0.2522361700    0.5879301570    0.2475129319
H       -0.9974217238   -2.6920653560   -0.9013302346
H        0.2023406686   -3.1708668805    0.3223896941
H        0.6246576232   -3.2241729118   -1.4117027076
H        2.3325513342    0.7433274440   -2.1439482963
24   
Generated by ForceBalance from scan.xyz: Frame 19 of 24
C        5.1592173899    1.3035283506    1.5112291642
C        4.3574803253    0.1826059120    1.7471228244
C        4.8784670782    2.1173383345    0.4078498587
C        3.2895338068   -0.1221100481    0.8998047443
C        3.8137211915    1.8204710641   -0.4440422793
C        3.0080003343    0.6948953288   -0.2071791562
C        1.5226309441   -0.9420181302   -1.2524982249
C       -0.2779143040   -0.5097365663    0.4218972273
C       -0.0364670688   -2.7178869922   -0.6679896735
N        1.8870246446    0.4469051586   -1.0456976737
N        0.4116041366   -1.3340706848   -0.5634761523
O        2.1179865816   -1.6501082970   -2.0587672725
H        5.9903905338    1.5360752414    2.1708134907
H        4.5649722462   -0.4661539720    2.5944947906
H        5.4938192456    2.9902453981    0.2049170780
H        2.6853000768   -1.0046133081    1.0902660507
H        3.6033007786    2.4615416411   -1.2978376023
H       -0.0955417008   -0.8820041455    1.4384821807
H       -1.3573076460   -0.5421419212    0.2339312179
H        0.0680671908    0.5188244087    0.3500967244
H       -1.0876838310   -2.7467020293   -0.9774450751
H        0.0535716199   -3.2252240425    0.3009008745
H        0.5732233281   -3.2356137926   -1.4061423591
H        2.0775056947    0.8234910655   -1.9721132952
24   
Generated by ForceBalance from scan.xyz: Frame 20 of 24
C        5.3599933880    1.3669131716    1.4266164183
C        5.2495536771   -0.0027934830    1.1633110085
C        4.4232802413    2.2434026260    0.8702303964
C        4.2265205168   -0.5056539446    0.3561431855
C        3.3867856912    1.7549542101    0.0724587514
C        3.2778483245    0.3778899472   -0.1844423785
C        1.6231308112   -1.3397041762   -0.8676079169
C       -0.4844079590   -0.1342186710   -0.2437469697
C       -0.4794143327   -2.5736712629   -0.7122785339
N        2.2150207203   -0.0665720330   -1.0123551676
N        0.2744283876   -1.3310293988   -0.5824902386
O        2.2788826844   -2.3750878726   -0.9633436511
H        6.1653262792    1.7456208401    2.0497515411
H        5.9767758044   -0.6944244565    1.5814374686
H        4.4927239697    3.3116843675    1.0592202839
H        4.1571776601   -1.5637097587    0.1341640705
H        2.6588280503    2.4446878352   -0.3525005057
H       -1.3614991670   -0.4308672537    0.3375104347
H       -0.8439556947    0.4101698130   -1.1300393116
H        0.1044303716    0.5416234441    0.3812500200
H       -1.2706534041   -2.4694061903   -1.4657617683
H       -0.9403208532   -2.8432258297    0.2454744521
H        0.2035274486   -3.3673493587   -1.0098694327
H        1.5570892729    0.6772162713   -1.2084623111
24   
Generated by ForceBalance from scan.xyz: Frame 21 of 24
C        5.5344390308    1.3884734831    1.3364875738
C        5.3891852150    0.0196942269    1.0887220022
C        4.5481179852    2.2688015556    0.8802875429
C        4.2838874153   -0.4800713271    0.3951664067
C        3.4324014895    1.7833305700    0.1969479634
C        3.2871417786    0.4062409912   -0.0452502428
C        1.5742797412   -1.2992308354   -0.6674523789
C       -0.6310265700   -0.1428617295   -0.3743972678
C       -0.4954180263   -2.5918373801   -0.7629852266
N        2.1357672939   -0.0181170308   -0.7541915801
N        0.1988381678   -1.3281337793   -0.5373124349
O        2.2606445091   -2.3207329861   -0.6868014448
H        6.4028388294    1.7638511889    1.8706445209
H        6.1523009789   -0.6756207180    1.4297176231
H        4.6415040941    3.3370469427    1.0587481204
H        4.1847580320   -1.5375569370    0.1872709777
H        2.6672287352    2.4768694964   -0.1492318828
H       -1.6057216287   -0.4509385616    0.0114607144
H       -0.8057524968    0.3943315612   -1.3193627181
H       -0.1993363086    0.5456321187    0.3579723176
H       -1.1460229176   -2.5282404384   -1.6451895491
H       -1.1093195819   -2.8495202949    0.1079914523
H        0.2457166670   -3.3741174532   -0.9161993727
H        1.4820785760    0.7367899649   -0.9107822089
24   
Generated by ForceBalance from scan.xyz: Frame 22 of 24
C        5.6320754259    1.4001190548    1.1824393759
C        5.4602452033    0.0330080081    0.9453890036
C        4.5967005138    2.2805368758    0.8517383697
C        4.2814016910   -0.4672775999    0.3854396043
C        3.4104902332    1.7958198457    0.3007960392
C        3.2390128023    0.4193172301    0.0675105231
C        1.4844217188   -1.2810252627   -0.4968765122
C       -0.7638301899   -0.1749201347   -0.5175206753
C       -0.5255399824   -2.6284555554   -0.8082308338
N        2.0108573015    0.0103050606   -0.5037853042
N        0.1006710135   -1.3460200571   -0.5016336282
O        2.1928595813   -2.2883111633   -0.4747833777
H        6.5565511798    1.7743884735    1.6133317866
H        6.2585461789   -0.6628363732    1.1915841683
H        4.7078570637    3.3479228371    1.0249513423
H        4.1586392840   -1.5240031001    0.1912244062
H        2.6089258707    2.4898760055    0.0514280720
H       -1.7895493575   -0.4967673112   -0.3254952540
H       -0.7586938498    0.3521705956   -1.4840761027
H       -0.4984594817    0.5286751074    0.2786713340
H       -0.9822818005   -2.6184956505   -1.8073903696
H       -1.3027618324   -2.8525464888   -0.0690752942
H        0.2356875616   -3.4053441879   -0.7710951763
H        1.3529358661    0.7688866296   -0.6094035670
24   
Generated by ForceBalance from scan.xyz: Frame 23 of 24
C        5.7302960377    1.3818252895    1.0664280239
C        5.5319815064    0.0139778612    0.8571475640
C        4.6677148713    2.2624783403    0.8381896922
C        4.3007628698   -0.4878909280    0.4258925612
C        3.4317739808    1.7772679902    0.4121572536
C        3.2339526531    0.3996064716    0.2041261912
C        1.4558479230   -1.2954833044   -0.3386815563
C       -0.7802714971   -0.2096470737   -0.6267304148
C       -0.4920298171   -2.6650017890   -0.8612165648
N        1.9526414496   -0.0008208752   -0.2349692303
N        0.0790974885   -1.3757906185   -0.4834892919
O        2.1741680919   -2.2956188172   -0.2948897095
H        6.6943200252    1.7561459907    1.3995099033
H        6.3490134744   -0.6828004910    1.0276777099
H        4.7972641796    3.3306257449    0.9928697750
H        4.1558848013   -1.5459926534    0.2593373655
H        2.6109826071    2.4722376471    0.2396688724
H       -1.8207683134   -0.5394066317   -0.6128695652
H       -0.6158531181    0.3322713866   -1.5705120115
H       -0.6602872165    0.4849995895    0.2126942283
H       -0.7778271703   -2.6811219862   -1.9221934570
H       -1.3805294462   -2.8705917791   -0.2544360170
H        0.2503133048   -3.4406756587   -0.6835470169
H        1.2932745460    0.7591579063   -0.3118198280
24   
Generated by ForceBalance from scan.xyz: Frame 24 of 24
C        5.7405081907    1.2614983245    1.1163398610
C        5.5235743550   -0.1005665963    0.8893851380
C        4.6863467225    2.1581059453    0.9116938116
C        4.2820132661   -0.5820688973    0.4643069114
C        3.4416001627    1.6940168115    0.4884464156
C        3.2253894209    0.3219268812    0.2606730506
C        1.4534658010   -1.3326741920   -0.4218848339
C       -0.7440672017   -0.2131258727   -0.8406530323
C       -0.5051140782   -2.6859883244   -0.9489796706
N        1.9347382487   -0.0541629593   -0.1693541558
N        0.1302653378   -1.3771740618   -0.8351367378
O        2.1428671612   -2.3472382979   -0.3042101834
H        6.7118866748    1.6193351939    1.4461499342
H        6.3331243423   -0.8097327545    1.0438121578
H        4.8300249350    3.2221762793    1.0812974161
H        4.1210924561   -1.6366960942    0.2914383060
H        2.6279893769    2.4012317565    0.3325100666
H       -1.7088607661   -0.5031414493   -1.2603856875
H       -0.3519628354    0.5870962270   -1.4802021514
H       -0.9272716817    0.1880147307    0.1671970927
H       -1.0808752598   -2.7419165071   -1.8792913843
H       -1.1803041044   -2.8780540373   -0.1036954453
H        0.2697072080   -3.4500948453   -0.9599218868
H        1.2932258776    0.7183091091   -0.2673351826
