66

C     -1.47647   -1.64372   -4.49625
C     -0.68412   -3.33177   -2.88982
C     -0.99547   -3.85454   -5.24594
C     -1.10392   -2.02794   -3.18034
C     -1.41870   -2.55560   -5.53799
C     -0.88478   -4.97328   -6.11997
C     -0.63915   -4.25354   -3.94453
C     -0.46374   -6.04400   -5.35503
C     -0.06039   -0.14062  -11.12268
C     -1.21890   -4.79445   -7.57517
C     -0.54405   -1.63453   -7.72726
C     -1.34649   -2.64156   -9.88896
C     -2.37261    1.45822   -1.67627
C     -0.89517    1.53201   -1.29800
C     -1.73603   -2.27799   -6.99270
C     -1.15309   -1.01484   -2.06347
C     -0.89766   -1.35561   -9.18706
C     -2.19053   -3.59356   -7.68482
C     -0.17365   -7.46217   -5.72613
C      0.93598    0.44694  -14.18100
C      2.56043    1.74280  -10.15759
C     -3.10999   -4.40158   -9.91565
C      0.66415    1.29827  -12.93927
C      2.31569    0.61490  -11.16726
N     -0.31055   -5.59853   -4.03945
N      0.23791   -0.80871   -9.91697
N      0.94515    0.58168  -11.68527
N     -2.51178   -3.25947   -9.14742
O     -1.18797   -0.25852  -11.62443
S     -2.86380   -0.30912   -1.81462
S      0.01105    0.37463   -2.38046
H     -1.81283   -0.62352   -4.65926
H     -0.41011   -3.60502   -1.87406
H     -0.31275   -4.60914   -8.16359
H     -1.69115   -5.69112   -7.98747
H     -0.28903   -0.70016   -7.21752
H      0.33372   -2.28672   -7.66010
H     -1.68063   -2.41428  -10.90111
H     -0.54260   -3.37682   -9.92179
H     -2.99752    1.91732   -0.90487
H     -2.55246    1.96180   -2.62869
H     -0.48891    2.53390   -1.46516
H     -0.74160    1.26036   -0.25027
H     -2.58109   -1.57667   -7.04230
H     -0.86717   -1.49409   -1.12566
H     -1.73832   -0.64697   -9.22629
H     -3.14913   -3.89227   -7.25021
H      0.88962   -7.70100   -5.60742
H     -0.74342   -8.16538   -5.10833
H     -0.43863   -7.64491   -6.77013
H      1.97657    0.10707  -14.21581
H      0.28243   -0.42941  -14.18997
H      0.74257    1.02945  -15.08746
H      2.33991    2.71716  -10.60312
H      1.92911    1.63898   -9.26781
H      3.60550    1.74466   -9.83218
H     -2.33452   -5.13643  -10.12241
H     -3.90790   -4.85121   -9.32359
H     -3.50800   -4.01497  -10.85420
H     -0.37951    1.61364  -12.91892
H      1.28365    2.20059  -12.94373
H      2.56652   -0.36019  -10.73870
H      2.98250    0.74124  -12.02459
H     -0.02017   -6.18877   -3.27116
H      0.94360   -0.38674   -9.32565
H     -3.23134   -2.52959   -9.10494
