30

C      5.95939    0.37924    1.07598
C      2.39987   -1.31760    1.86867
C      1.37105   -1.86681   -0.26885
C      6.09173    1.70312    1.47711
C      1.14523   -1.02644    2.39746
C      0.11716   -1.54724    0.24806
C      3.81537    0.88065    0.05843
C      2.51571   -1.71080    0.52549
C      4.80564   -0.05273    0.40285
C      5.10049    2.64196    1.15786
C      0.01985   -1.11923    1.57420
C      3.97673    2.20953    0.42797
N      3.76805   -2.13490   -0.02552
N      4.80114   -1.42498   -0.00464
N     -1.75369    0.94064    1.83197
O     -2.60226   -1.42411    1.46979
O     -1.49657   -0.77776    3.70314
O      5.28445    3.92909    1.55053
S     -1.58822   -0.70098    2.24220
Cl     2.75425    3.39754   -0.01480
H      6.74046   -0.34465    1.28815
H      3.28606   -1.24599    2.49120
H      1.47752   -2.23129   -1.28643
H      6.96716    2.04524    2.02032
H      1.03257   -0.73939    3.43804
H     -0.77845   -1.65476   -0.35546
H      2.93697    0.58850   -0.50371
H     -2.60598    1.06265    1.28611
H     -1.78064    1.50212    2.68225
H      4.53313    4.46841    1.24415
