25

C      6.79305   -0.50612    2.43597
C      6.53724    0.12026    3.65846
C      5.85851   -0.37360    1.40966
C      0.80649   -0.76734    0.94221
C      1.23547    0.36325    3.01517
C      5.35541    0.85726    3.80055
C     -0.01488   -1.64455    1.64701
C      1.44769    0.26929    1.63775
C      4.70437    0.38262    1.65155
C      0.38457   -0.57520    3.60630
C      3.67528    0.52717    0.56337
C      2.36805    1.23272    0.91528
N      4.45328    0.99214    2.82333
N     -0.23090   -1.55416    2.97155
O      3.86854    0.05993   -0.55012
Br     0.07639   -0.44330    5.50893
H      7.70010   -1.08620    2.28840
H      7.23346    0.04343    4.48864
H      5.99345   -0.83596    0.43747
H      0.94999   -0.88948   -0.12761
H      1.72561    1.12788    3.60554
H      5.12706    1.35712    4.74025
H     -0.52711   -2.45789    1.13689
H      1.91567    1.55205   -0.02608
H      2.56865    2.09969    1.54576
