32

C      0.38866   -5.21606    0.31139
C     -0.31861   -1.03203   -0.35757
C     -0.68397   -5.58146   -0.57328
C      0.38416   -1.22707   -1.58441
C      0.00496   -2.10932    0.47949
C      0.22539   -6.03682    1.39226
C     -1.02444   -4.99007   -1.90622
C      0.40827   -0.38909   -2.82206
C     -0.41207   -2.45836    1.87047
C      0.95399   -6.20238    2.68171
C      1.43056   -4.16453    0.08173
N      1.08506   -2.35343   -1.51014
N     -1.41862   -6.54343   -0.06105
N      0.84802   -2.86449   -0.25969
N     -1.18997    0.05088   -0.03573
O     -1.76777    0.03686    1.06538
O     -1.32679    0.95064   -0.87952
O     -0.84225   -6.84070    1.19057
H     -0.15149   -4.98005   -2.56507
H     -1.82521   -5.56438   -2.37593
H     -1.35292   -3.95196   -1.79506
H      0.78561    0.61407   -2.60632
H      1.04721   -0.86767   -3.56727
H     -0.59897   -0.26385   -3.22859
H     -1.34159   -3.03769    1.85894
H      0.35217   -3.05722    2.37051
H     -0.59761   -1.55032    2.44277
H      0.26626   -6.10103    3.52705
H      1.41633   -7.19279    2.74406
H      1.74100   -5.45155    2.78018
H      2.07177   -4.05605    0.96151
H      2.07374   -4.40897   -0.76616
