20

C      2.22569   -0.78836   -0.08986
C      1.53818   -1.32909    2.57594
C     -3.56873   -0.81660   -1.26821
C     -3.36742   -2.09384   -0.79618
C      0.90299   -0.57724    0.33525
C      3.17249   -1.28818    0.78683
C      0.59715   -0.84124    1.67370
C      2.82780   -1.56019    2.11516
C     -1.43509   -0.61306   -0.73886
C     -0.07301   -0.01076   -0.65775
N     -2.47522    0.00261   -1.24297
O      0.27057    0.87389   -1.42581
F      4.43574   -1.51481    0.37805
F     -0.64317   -0.57823    2.14469
F      3.76182   -2.03934    2.95231
S     -1.73923   -2.28236   -0.27330
H      2.50487   -0.55914   -1.11334
H      1.27736   -1.51215    3.61275
H     -4.51191   -0.43870   -1.64805
H     -4.07721   -2.90923   -0.74017
