29

C      7.52021   -6.04993   -1.28045
C      6.57715   -6.53501   -0.36780
C      7.43642   -4.72059   -1.70417
C      2.16978   -0.72211    0.13659
C      5.56957   -5.69869    0.11043
C      6.43171   -3.86940   -1.23555
C      1.09058   -0.17813    0.82850
C      2.61718   -2.17989    2.01052
C      2.93403   -1.74224    0.71690
C      1.54588   -1.64445    2.74041
C      5.48843   -4.36152   -0.31787
C      0.78938   -0.64385    2.11053
C      4.08634   -2.28302   -0.08313
C      1.24864   -2.12855    4.13688
N      4.44603   -3.57706    0.22410
O      4.63702   -1.60441   -0.94859
Br    -0.70559    0.14188    3.02468
H      8.30647   -6.69930   -1.65512
H      6.62397   -7.56566   -0.02615
H      8.16231   -4.33246   -2.41412
H      2.43372   -0.36537   -0.85369
H      4.83984   -6.08355    0.82117
H      6.36698   -2.84446   -1.57286
H      0.48687    0.60410    0.38004
H      3.23584   -2.92637    2.50353
H      1.30344   -1.30795    4.85927
H      0.23845   -2.54505    4.20359
H      1.96026   -2.90068    4.43947
H      3.83098   -4.07080    0.85690
