33

C      1.60164   -0.38421   -0.17995
C      0.54773    0.12567    0.56066
C      2.52927   -1.25798    0.41346
C     -2.50367    0.34230    6.42034
C     -3.23227    0.47406    7.58586
C      0.38390   -0.22034    1.92214
C      2.37915   -1.60549    1.75008
C      1.30811   -1.09334    2.52058
C     -2.96337    1.05469    5.29796
C     -4.36885    1.30284    7.56469
C     -2.22621    0.95291    4.02411
C     -0.73757    0.33546    2.67124
C     -5.22755    1.50314    8.78526
C      4.31921   -3.02297    1.78467
N     -4.05255    1.83389    5.32529
N     -4.74940    1.95607    6.45334
N     -1.09315    0.17111    3.91963
N     -2.57013    1.57452    2.91549
O     -1.58020    1.16734    2.00565
O      1.20072   -1.45997    3.82203
O      3.20420   -2.44591    2.46317
H      1.71607   -0.11059   -1.22421
H     -0.16812    0.79954    0.10397
H      3.35142   -1.65261   -0.17336
H     -1.61421   -0.27406    6.34362
H     -2.94353   -0.04316    8.49754
H     -4.63209    1.86830    9.62907
H     -6.01559    2.22555    8.56706
H     -5.69084    0.55946    9.09473
H      4.82966   -3.64435    2.52091
H      5.00251   -2.24593    1.42332
H      3.98759   -3.64545    0.94574
H      1.94519   -2.06251    4.00777
