27

C      8.37432   -4.84207   -2.93836
C      9.11213   -5.37296   -1.87631
C      7.09940   -4.33103   -2.70456
C      3.12246   -1.50754    1.59321
C      2.37410   -0.72859    2.46509
C      8.56744   -5.40200   -0.59069
C      0.65953   -0.51243    0.75558
C      2.67026   -1.81534    0.29294
C      6.53497   -4.33791   -1.41581
C      1.13859   -0.23605    2.03436
C      1.42321   -1.29876   -0.11188
C      7.28717   -4.89099   -0.36529
C      5.18562   -3.76789   -1.24838
C      3.56178   -2.64971   -0.51600
N      4.80250   -2.94369   -0.21482
N      4.24357   -3.97714   -2.14789
O      3.15558   -3.23058   -1.66429
Cl     0.17404    0.74623    3.11196
Cl     0.75848   -1.57427   -1.70356
Br     6.58708   -5.05291    1.41234
H      8.79103   -4.82123   -3.94116
H     10.10957   -5.77050   -2.04297
H      6.51817   -3.90779   -3.51774
H      4.08429   -1.90354    1.90099
H      2.73711   -0.50650    3.46287
H      9.12736   -5.82863    0.23484
H     -0.29664   -0.12045    0.42799
