31

C      1.13165   -1.46190    0.60464
C      0.92839    1.04088    0.66721
C      0.84744   -0.16214   -1.58393
C      0.87752   -1.47773    2.12137
C      0.70535    0.94118    2.18588
C     -1.03969   -0.32684   -0.16960
C      0.49698   -0.24066   -0.08000
C     -0.41179    0.41919   -2.28640
C     -0.94680   -0.52831   -3.36693
C     -0.19253    1.82211   -2.85189
N      1.29938   -0.24987    2.80727
O     -1.40894    0.53965   -1.23733
H      2.21630   -1.44554    0.42773
H      0.75263   -2.38587    0.14761
H      0.38773    1.90605    0.26663
H      1.99679    1.21445    0.47750
H      1.73426    0.45342   -1.76158
H      1.06545   -1.16485   -1.96782
H     -0.19369   -1.61572    2.31793
H      1.39111   -2.32717    2.58464
H      1.10965    1.82872    2.68442
H     -0.36895    0.92640    2.40782
H     -1.35230   -1.36371   -0.37690
H     -1.56807    0.01452    0.72353
H     -1.86006   -0.12223   -3.81267
H     -1.18136   -1.50853   -2.93888
H     -0.20561   -0.67342   -4.16100
H     -1.14000    2.23791   -3.20879
H      0.51139    1.79596   -3.69055
H      0.20706    2.49026   -2.08361
H      2.31505   -0.17718    2.74673
