37

C      1.80225   -4.63849    3.33552
C      2.55199   -3.49975    3.66064
C      1.98726   -5.29618    2.11296
C      2.48937   -9.64616   -4.13489
C      2.93378  -10.15144   -5.37205
C      3.50593   -2.99272    2.76714
C      3.82335   -7.61447   -4.40219
C      2.93751   -4.79249    1.22119
C      2.91396   -8.40152   -3.64180
C      3.80680   -9.36121   -6.09299
C      4.23873   -8.12055   -5.61048
C      3.67102   -3.65967    1.56405
C      3.35234   -5.26998   -0.13263
C      2.45990   -7.88979   -2.32955
C      5.10430   -8.41743   -7.66070
C      1.29370   -8.52262   -1.60051
N      4.27698   -4.60710   -0.76318
N      3.11266   -6.87505   -1.86004
N      2.73906   -6.37073   -0.64834
O      4.40748   -2.04116   -0.44985
O      6.17715   -3.50558    0.60914
O      4.39265   -9.62013   -7.30644
O      5.11824   -7.56035   -6.51077
S      4.79116   -3.29915    0.19028
H      1.06769   -5.01638    4.04085
H      2.39195   -3.00537    4.61464
H      1.39209   -6.17755    1.88616
H      1.81525  -10.26640   -3.55529
H      2.60745  -11.11817   -5.74114
H      4.09332   -2.11154    3.00709
H      4.16899   -6.65797   -4.02767
H      6.13003   -8.67496   -7.93515
H      4.57756   -7.91879   -8.48408
H      1.62763   -9.07041   -0.70994
H      0.57970   -7.75460   -1.27964
H      0.74008   -9.21750   -2.22820
H      2.03987   -6.83642   -0.07931
