25

C      3.18235   -0.87858    1.69458
C      2.22741   -0.21580    2.45722
C      0.49852   -1.23708    1.09499
C      5.78674   -5.80568   -4.23600
C      2.84919   -1.73245    0.62070
C      0.87995   -0.40430    2.14568
C      1.47182   -1.89565    0.33863
C      4.98060   -4.50445   -2.67715
C      3.97179   -2.35428   -0.08153
N      4.48630   -5.82390   -4.33411
N      3.95696   -4.99409   -3.34088
N      3.85939   -3.15865   -1.08100
N      6.16887   -4.97685   -3.19139
N      7.43225   -4.63053   -2.68880
N      5.00403   -3.63992   -1.60884
Cl    -0.35356    0.41383    3.08387
Cl     0.89658   -2.91458   -0.95333
H      4.23329   -0.73468    1.93373
H      2.51889    0.43345    3.27602
H     -0.55046   -1.37828    0.85928
H      6.49199   -6.34236   -4.85742
H      4.96314   -2.08349    0.31041
H      7.97904   -4.18304   -3.42348
H      7.91692   -5.47208   -2.37913
H      5.92172   -3.38485   -1.24048
