14

C     -1.21012    0.36743   -3.52029
C     -0.57818    0.87465   -2.41872
C     -0.71537    0.03609   -1.26066
C     -1.44471   -1.10190   -1.49856
C     -1.85440   -2.18367   -0.53958
N     -3.02439   -1.76116    0.24935
S     -1.97430   -1.14337   -3.15834
Br     0.37789    2.51349   -2.45143
Br     0.03384    0.44458    0.43202
H     -1.25464    0.79168   -4.51394
H     -2.00443   -3.11937   -1.10177
H     -1.02685   -2.35629    0.15531
H     -3.25630   -2.48613    0.92683
H     -3.83189   -1.65518   -0.36269
