25

C      5.82499    3.35988    0.83591
C      7.09268    2.79566    0.70700
C      4.73229    2.51040    1.02938
C      0.87893   -1.17213    1.04638
C      1.04095   -0.54310    3.35323
C      7.20800    1.39932    0.77353
C     -0.04685   -2.13937    1.42588
C      1.43973   -0.34447    2.03021
C      4.94896    1.12510    1.07156
C      0.10277   -1.54945    3.61047
C      3.80875    0.14217    1.24498
C      2.44934    0.71663    1.68077
N      6.17088    0.57945    0.94464
N     -0.43933   -2.33049    2.69876
O      3.96258   -1.04440    1.03394
Br    -0.45415   -1.82726    5.43871
H      5.68575    4.43658    0.78905
H      7.97488    3.41199    0.55950
H      3.73623    2.92674    1.13361
H      1.16756   -1.07467    0.00427
H      1.44102    0.05784    4.16325
H      8.18396    0.92431    0.68297
H     -0.49917   -2.79711    0.68665
H      2.07168    1.33377    0.85524
H      2.60151    1.39431    2.52658
