24   
Generated by ForceBalance from scan.xyz: Frame 1 of 24
C        3.9283086235    2.8061084395    3.1387034707
C        4.7636681183    1.9092776011    2.4627549752
C        4.3999469171    4.0819389356    3.4616958021
C        6.0636340282    2.2804441534    2.1130624732
C        5.6995641152    4.4552369282    3.1065928304
C        6.5441204681    3.5609431813    2.4323517351
C        9.0580143519    3.0772488651    2.5842175594
C        6.7793347180    5.1373185163   -0.3309624356
C        7.9417670440    3.9916671709    2.0646640189
O        9.4135271024    4.8473106234   -0.0220933038
O        7.9728152979    2.7626769675   -0.3414689168
S        8.1611162234    4.1107803415    0.2284474466
H        2.9178875767    2.5124506064    3.4107636801
H        4.4003562143    0.9182114360    2.2039040239
H        3.7596088427    4.7848586409    3.9881129800
H        6.6959354544    1.5892629593    1.5655353082
H        6.0616648230    5.4497994769    3.3589032969
H        8.9530826433    2.0642576903    2.1906186543
H       10.0397771038    3.4631636016    2.2991830201
H        8.9968182651    3.0343106072    3.6751557020
H        5.8583310849    4.7777084436    0.1283056366
H        6.9795779036    6.1780537798   -0.0743022294
H        6.7310103484    4.9966020757   -1.4122792724
H        8.1185758378    5.0163945761    2.4054641935
24   
Generated by ForceBalance from scan.xyz: Frame 2 of 24
C        3.9327091271    2.7887814382    3.1403381832
C        4.7748364095    1.9152883798    2.4426435239
C        4.3941051840    4.0605096378    3.4927722136
C        6.0711625870    2.3051279215    2.0999791222
C        5.6898931779    4.4535898383    3.1449138814
C        6.5405496770    3.5821963267    2.4482885037
C        9.0568087702    3.1285343345    2.6222614909
C        6.8087803382    5.2087109390   -0.3125193947
C        7.9356104559    4.0321993245    2.0943324808
O        9.4409717456    4.8879242755    0.0314710981
O        7.9842132784    2.8191408042   -0.3163166260
S        8.1773182208    4.1635638634    0.2609200916
H        2.9251364073    2.4802771634    3.4064948357
H        4.4195665301    0.9274882421    2.1611404897
H        3.7486868940    4.7452772649    4.0366041250
H        6.7091524279    1.6323910647    1.5364161955
H        6.0442659118    5.4446131454    3.4212704048
H        8.9668543901    2.1158734138    2.2238265907
H       10.0372040812    3.5264217324    2.3495008523
H        8.9838238211    3.0801871469    3.7122491628
H        5.9360034151    5.0306705809    0.3169831773
H        7.1241740742    6.2514137725   -0.2785544653
H        6.5904311181    4.8818699668   -1.3302796873
H        8.0963333908    5.0574152818    2.4421273647
24   
Generated by ForceBalance from scan.xyz: Frame 3 of 24
C        3.9231252342    2.7676851409    3.1451791896
C        4.7321430283    1.8847206133    2.4206618871
C        4.4144712541    4.0294884301    3.4923860996
C        6.0255759200    2.2540295426    2.0457376595
C        5.7073980991    4.4018795562    3.1122480657
C        6.5252203559    3.5210493528    2.3885981954
C        9.0346318724    3.0413608218    2.5506619590
C        6.7710054985    5.0650752670   -0.4204762812
C        7.9214643958    3.9479275697    2.0100003893
O        9.4092380275    4.7631019148   -0.0768244828
O        7.9658894452    2.6758686398   -0.3694048480
S        8.1509511619    4.0362442688    0.1733418061
H        2.9179948620    2.4740571852    3.4362461139
H        4.3531144245    0.9044080550    2.1439423748
H        3.7954195203    4.7217983164    4.0569520655
H        6.6385845741    1.5736388337    1.4637553673
H        6.0858072006    5.3849156085    3.3853056625
H        8.9250970012    2.0208514389    2.1782018071
H       10.0186318312    3.4176934117    2.2604939106
H        8.9700859153    3.0215934150    3.6421036770
H        6.0051071102    5.1243610513    0.3539930229
H        7.1659804595    6.0508161441   -0.6653508424
H        6.3633687447    4.5601475226   -1.2966728096
H        8.0975440419    4.9785926002    2.3330367800
24   
Generated by ForceBalance from scan.xyz: Frame 4 of 24
C        3.9223781369    2.7622489585    3.1234496368
C        4.7273642795    1.8753844017    2.3992859991
C        4.4208730840    4.0207330008    3.4725958059
C        6.0232054557    2.2387897689    2.0267817826
C        5.7162279730    4.3870078462    3.0949852589
C        6.5300497628    3.5024116436    2.3716441634
C        9.0387649829    3.0126036185    2.5255374764
C        6.7482003616    5.0232787561   -0.4354919061
C        7.9273823727    3.9230386080    1.9892819561
O        9.3900163398    4.7612720578   -0.0972453280
O        7.9867915875    2.6482394408   -0.3959214365
S        8.1454691739    4.0094716221    0.1514211304
H        2.9151357822    2.4742265589    3.4128139499
H        4.3434834878    0.8974063606    2.1209595509
H        3.8049437961    4.7157494847    4.0372350310
H        6.6333084148    1.5550846181    1.4454202362
H        6.1002895157    5.3669818529    3.3715546966
H        8.9255176282    1.9927374978    2.1522320648
H       10.0229049249    3.3864005351    2.2325744475
H        8.9779580158    2.9912753247    3.6172226740
H        6.1315436936    5.3257875878    0.4115045773
H        7.1752185300    5.8914657144   -0.9377640763
H        6.1671913476    4.4100074503   -1.1238861472
H        8.1090001525    4.9537448877    2.3083751738
24   
Generated by ForceBalance from scan.xyz: Frame 5 of 24
C        1.7075795703   -1.1950411176   -0.0987524452
C        2.8556399200   -0.7666058186    0.5775640453
C        0.5702937354   -1.5570689683    0.6290829982
C        2.8715209557   -0.7016071770    1.9724085125
C        0.5846405494   -1.4865297748    2.0252731995
C        1.7322344295   -1.0616199693    2.7107224119
C        2.7919801015   -1.8567601706    4.9034816772
C        0.7359099383    1.7081994165    3.8737517713
C        1.7194038981   -1.0021489255    4.2182522426
O        1.4975304438    0.7379291560    6.2418583123
O        3.2930034934    1.1898646394    4.4824874428
S        1.9353820825    0.7309600590    4.8329866487
H        1.7001370715   -1.2460158543   -1.1843642255
H        3.7411431743   -0.4794243711    0.0165842220
H       -0.3252081913   -1.8936599527    0.1133001877
H        3.7575136140   -0.3468245426    2.4892968001
H       -0.3024100555   -1.7720264338    2.5874112167
H        3.7944659381   -1.5419597320    4.6065039887
H        2.7098956205   -1.7851430276    5.9908757150
H        2.6528876257   -2.8997452195    4.6054961446
H        0.0001493443    1.0476010069    3.4143784247
H        0.2557214885    2.3758418229    4.5906349812
H        1.2803617806    2.2762549237    3.1203344776
H        0.7303698943   -1.2760028491    4.5969817449
24   
Generated by ForceBalance from scan.xyz: Frame 6 of 24
C        1.7214593962   -1.1663261638   -0.0881083462
C        2.8737734822   -0.7603357220    0.5948883213
C        0.5789357779   -1.5194497013    0.6358830761
C        2.8885972276   -0.7088934416    1.9902889853
C        0.5908785672   -1.4631564077    2.0327219109
C        1.7432706645   -1.0608835401    2.7232739824
C        2.8059567191   -1.8567811631    4.9172681985
C        0.7270107263    1.6773344536    3.8710516298
C        1.7277246614   -1.0105271997    4.2312272657
O        1.4696130656    0.7339015211    6.2484208056
O        3.2796127276    1.1985610019    4.5075699987
S        1.9244754799    0.7238185666    4.8452060230
H        1.7148719046   -1.2067605995   -1.1741995608
H        3.7640404831   -0.4797679763    0.0381619274
H       -0.3203278247   -1.8386350381    0.1156661646
H        3.7783449471   -0.3701257617    2.5114170655
H       -0.3011849473   -1.7412157432    2.5906011644
H        3.8064876700   -1.5324124052    4.6241541213
H        2.7204801183   -1.7878586264    6.0046252575
H        2.6770520383   -2.9004595132    4.6172193308
H       -0.1422433491    1.0581190348    3.6456398070
H        0.4381475015    2.5144750471    4.5090949334
H        1.2127816813    2.0355896480    2.9643353417
H        0.7400462768   -1.2949193763    4.6057678982
24   
Generated by ForceBalance from scan.xyz: Frame 7 of 24
C        1.7183536141   -1.1612074770   -0.1109359254
C        2.8823080224   -0.7772227973    0.5651631686
C        0.5734642729   -1.4982698893    0.6170306004
C        2.9056575077   -0.7320098879    1.9606097493
C        0.5966206457   -1.4477410901    2.0139230937
C        1.7594591044   -1.0680357377    2.6996355717
C        2.8458751914   -1.8466912605    4.8903771485
C        0.7130330662    1.6514764153    3.8521281597
C        1.7527256182   -1.0173210915    4.2073194881
O        1.4933743829    0.7342575831    6.2251619577
O        3.2722920295    1.2148601721    4.4565999982
S        1.9296116666    0.7214846368    4.8163200392
H        1.7045434861   -1.1969269192   -1.1970847569
H        3.7735214617   -0.5090967437    0.0038197372
H       -0.3343176717   -1.7996924741    0.1009583725
H        3.8037080356   -0.4086765972    2.4771475260
H       -0.2967993982   -1.7112411894    2.5764390808
H        3.8408355648   -1.5082868395    4.5943252764
H        2.7628526383   -1.7771544288    5.9778499014
H        2.7313497367   -2.8926715253    4.5925714674
H       -0.2408668286    1.1221304067    3.8655884487
H        0.6177972403    2.6127106081    4.3610030089
H        1.0851706636    1.7876498767    2.8373948178
H        0.7712345668   -1.3146568688    4.5879747026
24   
Generated by ForceBalance from scan.xyz: Frame 8 of 24
C        1.7393580938   -1.1741849609   -0.1266197104
C        2.8989128664   -0.7849398754    0.5538318803
C        0.5918260110   -1.5100782412    0.5978578668
C        2.9128982948   -0.7345978333    1.9492750478
C        0.6051822903   -1.4543575489    1.9947560117
C        1.7639167010   -1.0691975670    2.6846517450
C        2.8372293917   -1.8532955377    4.8791124043
C        0.6893961531    1.6501110698    3.8876477423
C        1.7502458947   -1.0179860342    4.1921890106
O        1.5421374455    0.7229919816    6.2332352196
O        3.2624439926    1.2159851707    4.4114104943
S        1.9327989843    0.7172636511    4.8115386604
H        1.7309247799   -1.2145442958   -1.2126719511
H        3.7928511809   -0.5170421935   -0.0032996091
H       -0.3124918563   -1.8152034510    0.0779323889
H        3.8069473555   -0.4067742376    2.4696425314
H       -0.2913928497   -1.7159979615    2.5530257344
H        3.8350132737   -1.5196852856    4.5868470370
H        2.7502340159   -1.7843059225    5.9661969529
H        2.7187472224   -2.8982513528    4.5793914781
H       -0.2987544214    1.2552988730    4.1298029053
H        0.7816534799    2.6819932074    4.2309020706
H        0.8970657453    1.5719328094    2.8207572918
H        0.7659721450   -1.3147688373    4.5665455318
24   
Generated by ForceBalance from scan.xyz: Frame 9 of 24
C        1.7540051681   -1.1800065005   -0.1350152517
C        2.9064713820   -0.7851768038    0.5541832380
C        0.6025128305   -1.5241485920    0.5792491301
C        2.9125063599   -0.7364842911    1.9497286636
C        0.6079883837   -1.4697524985    1.9761915301
C        1.7596212496   -1.0786986701    2.6751704331
C        2.8227188292   -1.8640937807    4.8726194871
C        0.6561613398    1.6457929802    3.9114346242
C        1.7350518313   -1.0319619480    4.1822241155
O        1.5315538843    0.6904476755    6.2433852049
O        3.2316856747    1.2052938056    4.4084018796
S        1.9066460304    0.7006576535    4.8174849218
H        1.7539624741   -1.2185276704   -1.2211460223
H        3.8022830571   -0.5110081575    0.0031921650
H       -0.2964366897   -1.8337586086    0.0526515398
H        3.8008424892   -0.4037664538    2.4765071847
H       -0.2906194046   -1.7370987991    2.5284162945
H        3.8201487183   -1.5232083344    4.5880492795
H        2.7284261078   -1.8006364518    5.9594192751
H        2.7118404306   -2.9082654349    4.5674113447
H       -0.3224933704    1.4255549739    4.3405969754
H        0.9138860014    2.6960377025    4.0566683314
H        0.6908117334    1.3750845641    2.8563406244
H        0.7507275558   -1.3378944067    4.5496237319
24   
Generated by ForceBalance from scan.xyz: Frame 10 of 24
C        1.7763952450   -1.1770064903   -0.1462402706
C        2.9211936312   -0.7621268115    0.5438644452
C        0.6296385546   -1.5352663256    0.5685729576
C        2.9249306262   -0.7070384169    1.9391510716
C        0.6312661232   -1.4746628377    1.9653414013
C        1.7758710846   -1.0626716927    2.6641854806
C        2.8287409217   -1.8596146096    4.8603199267
C        0.6662882530    1.6723745464    3.9386590504
C        1.7488466714   -1.0159616358    4.1712512336
O        1.5874715470    0.6898873670    6.2485746850
O        3.2535373827    1.2149140159    4.3857261213
S        1.9338976457    0.7126436925    4.8155685602
H        1.7786693884   -1.2201622082   -1.2322165427
H        3.8138028488   -0.4770871868   -0.0067918757
H       -0.2636471206   -1.8610725345    0.0421478527
H        3.8074163439   -0.3596429399    2.4661615786
H       -0.2639077508   -1.7545190149    2.5171008551
H        3.8290872110   -1.5271134014    4.5757599427
H        2.7350046828   -1.7979903604    5.9472064044
H        2.7086597646   -2.9019023408    4.5521383969
H       -0.2451482780    1.6545235646    4.5373368929
H        1.0579412843    2.6862546433    3.8492823781
H        0.4936312813    1.2335679655    2.9556200717
H        0.7614039399   -1.3151019278    4.5362532336
24   
Generated by ForceBalance from scan.xyz: Frame 11 of 24
C        1.7877349525   -1.1805847111   -0.1444743382
C        2.9181096776   -0.7423096885    0.5549055540
C        0.6434933981   -1.5647778389    0.5606997564
C        2.9098822929   -0.6892353309    1.9502559673
C        0.6335409599   -1.5062608271    1.9575701513
C        1.7633281556   -1.0706416169    2.6661621577
C        2.7962655515   -1.8844179029    4.8637165815
C        0.6484194591    1.6646330838    3.9460285069
C        1.7242472858   -1.0318962295    4.1734612302
O        1.5402086641    0.6536231952    6.2594083511
O        3.2351035549    1.1929132069    4.4267893252
S        1.9073453431    0.6912281427    4.8316396075
H        1.7993089107   -1.2219433968   -1.2304609821
H        3.8087436998   -0.4377289066    0.0115144576
H       -0.2384845584   -1.9091351996    0.0270533169
H        3.7811363081   -0.3255986075    2.4850290353
H       -0.2591428347   -1.8078415670    2.5019785852
H        3.7994758737   -1.5541173196    4.5864965048
H        2.6964143231   -1.8298182826    5.9504392366
H        2.6739163259   -2.9241253247    4.5476530080
H       -0.1637749580    1.8646181369    4.6452551230
H        1.1324041877    2.5867523860    3.6240236251
H        0.2893264717    1.1003453221    3.0847296551
H        0.7328988894   -1.3293655658    4.5290058583
24   
Generated by ForceBalance from scan.xyz: Frame 12 of 24
C        1.7850908243   -1.1552221465   -0.1333817881
C        2.9000559258   -0.7095928971    0.5857978013
C        0.6406758904   -1.5717151642    0.5529230612
C        2.8761872437   -0.6812235488    1.9817184769
C        0.6146558551   -1.5381499063    1.9503729313
C        1.7291885660   -1.0955899206    2.6783779495
C        2.7504497719   -1.9289494545    4.8741268902
C        0.5864433760    1.6098167073    3.9519756944
C        1.6736982826   -1.0814424635    4.1857436030
O        1.4047559736    0.5736503263    6.2797978161
O        3.1638595293    1.1515017094    4.5206347967
S        1.8257780955    0.6348817727    4.8673342683
H        1.8087511641   -1.1773817614   -1.2197372208
H        3.7908798961   -0.3800898471    0.0574620075
H       -0.2293390463   -1.9221636538    0.0038404597
H        3.7356463958   -0.3125462134    2.5321916073
H       -0.2778286303   -1.8660910375    2.4797940830
H        3.7516798451   -1.5801281524    4.6129668750
H        2.6383013750   -1.8924856243    5.9604641298
H        2.6464833140   -2.9654571705    4.5412773459
H       -0.1041377314    2.0199295331    4.6889321014
H        1.1198526120    2.3976562980    3.4205487925
H        0.0657431195    0.9672513586    3.2411486771
H        0.6828966319   -1.3959190722    4.5272318876
24   
Generated by ForceBalance from scan.xyz: Frame 13 of 24
C        1.7814291153   -1.1235324771   -0.1349632495
C        2.8860259883   -0.6758113646    0.5988182172
C        0.6383972066   -1.5671378202    0.5365238289
C        2.8531240326   -0.6724157945    1.9948700123
C        0.6036655844   -1.5583752735    1.9341289278
C        1.7075832217   -1.1143234320    2.6768973017
C        2.7283179970   -1.9626380424    4.8678450088
C        0.5498317679    1.5546661184    3.9303693975
C        1.6425326149   -1.1234517776    4.1843335791
O        1.2843235277    0.5109304743    6.2766616856
O        3.1085868276    1.1184036566    4.5954783531
S        1.7626175714    0.5871261678    4.8830731089
H        1.8120584092   -1.1263714958   -1.2213591377
H        3.7756345289   -0.3254907242    0.0819432595
H       -0.2234935508   -1.9193365839   -0.0241451823
H        3.7046897371   -0.3026962979    2.5571710795
H       -0.2875527762   -1.9072672948    2.4521701017
H        3.7253844420   -1.5930922375    4.6196585510
H        2.6077305340   -1.9439079759    5.9538255143
H        2.6442523831   -2.9959052266    4.5196187769
H        0.0041755928    2.1639590663    4.6512135978
H        1.0962617055    2.1703833703    3.2163329429
H       -0.1189474800    0.8785342155    3.3964795365
H        0.6545193406   -1.4556681668    4.5160027200
24   
Generated by ForceBalance from scan.xyz: Frame 14 of 24
C        1.7912491270   -1.0948809663   -0.1216499023
C        2.9016297828   -0.6688936295    0.6164603275
C        0.6426976693   -1.5307689243    0.5454681637
C        2.8694594620   -0.6793405042    2.0124508122
C        0.6081465229   -1.5361904433    1.9430296585
C        1.7181084464   -1.1143079695    2.6892981995
C        2.7433550694   -1.9620943077    4.8809798805
C        0.5471525500    1.5259723370    3.9223769462
C        1.6515893734   -1.1318937065    4.1965787772
O        1.2550969867    0.5054025326    6.2805243285
O        3.0970647816    1.1236822606    4.6230311813
S        1.7532409995    0.5793891185    4.8938386805
H        1.8216906319   -1.0868202036   -1.2080295554
H        3.7953684389   -0.3244734820    0.1027907960
H       -0.2236891876   -1.8660035275   -0.0186445038
H        3.7255209696   -0.3251704663    2.5779913951
H       -0.2874529523   -1.8784701545    2.4578885153
H        3.7377107259   -1.5830518130    4.6363978060
H        2.6201238857   -1.9459392959    5.9667468895
H        2.6697552008   -2.9956816282    4.5313885677
H        0.1757062324    2.3114992973    4.5816551068
H        1.0531699016    1.9413388745    3.0512299993
H       -0.2598175195    0.8647661571    3.6035014954
H        0.6658655993   -1.4736890356    4.5251479622
24   
Generated by ForceBalance from scan.xyz: Frame 15 of 24
C        1.7930692260   -1.0709439993   -0.1306670784
C        2.9052872744   -0.6579850425    0.6121950286
C        0.6413514801   -1.5068240408    0.5310356443
C        2.8712706973   -0.6815991322    2.0079691011
C        0.6058065763   -1.5252305949    1.9284738619
C        1.7171397244   -1.1168876280    2.6798608410
C        2.7523501630   -1.9546225507    4.8723633708
C        0.5129253764    1.4963438332    3.9049736059
C        1.6480216515   -1.1423867520    4.1866198460
O        1.2073660627    0.4914818543    6.2698455631
O        3.0545304075    1.1339272173    4.6270006755
S        1.7173162790    0.5690442903    4.8879028121
H        1.8245332860   -1.0526428149   -1.2168835809
H        3.8012952372   -0.3134163603    0.1026003928
H       -0.2264357114   -1.8316150925   -0.0370279329
H        3.7283829758   -0.3362754626    2.5773081694
H       -0.2926825757   -1.8654632484    2.4394112420
H        3.7404910959   -1.5559456737    4.6343574582
H        2.6243077073   -1.9450705831    5.9577012437
H        2.6994601601   -2.9880909651    4.5187941815
H        0.3185832710    2.4136744064    4.4631211627
H        0.9426378758    1.7124543436    2.9272675354
H       -0.3982030889    0.9046138202    3.8032048411
H        0.6678494257   -1.5031088796    4.5116643893
24   
Generated by ForceBalance from scan.xyz: Frame 16 of 24
C        1.8147475386   -1.0644537757   -0.1446466805
C        2.9270443179   -0.6576415749    0.6013878796
C        0.6587315155   -1.4924956898    0.5147864019
C        2.8888015375   -0.6800061824    1.9970987154
C        0.6188082171   -1.5099054014    1.9121136829
C        1.7305062115   -1.1076492612    2.6665523623
C        2.7639385678   -1.9369275227    4.8640237582
C        0.4750918826    1.4921043211    3.9272617420
C        1.6566784739   -1.1328498976    4.1727719083
O        1.2428803377    0.4951719696    6.2730787604
O        3.0335713734    1.1628782952    4.5786462487
S        1.7124485279    0.5784878454    4.8776949243
H        1.8493287158   -1.0472748275   -1.2307971736
H        3.8265168925   -0.3185061382    0.0942866412
H       -0.2095816780   -1.8120503710   -0.0554290523
H        3.7458449701   -0.3380360556    2.5682628199
H       -0.2837443793   -1.8426579952    2.4206586485
H        3.7504076348   -1.5312169150    4.6308836970
H        2.6301922614   -1.9279258462    5.9485775126
H        2.7204362972   -2.9707070297    4.5101773226
H        0.4716684091    2.4985387706    4.3504565378
H        0.7668462925    1.5142855000    2.8778404932
H       -0.4993067099    1.0209707618    4.0655708401
H        0.6780866511   -1.5022687000    4.4933795989
24   
Generated by ForceBalance from scan.xyz: Frame 17 of 24
C        1.8364823461   -1.0728048714   -0.1645587591
C        2.9580678699   -0.6633212105    0.5658022821
C        0.6849449702   -1.4879006025    0.5108435358
C        2.9340434405   -0.6702578055    1.9620053372
C        0.6591901373   -1.4896109714    1.9086260361
C        1.7804128150   -1.0843444754    2.6476690938
C        2.8285562072   -1.9128727238    4.8370443885
C        0.5398705718    1.5402888450    3.9587284321
C        1.7227078094   -1.0984958061    4.1545933607
O        1.4021102209    0.5349791771    6.2720954490
O        3.1194357975    1.1887759318    4.4983903706
S        1.8086638816    0.6137287793    4.8570105860
H        1.8603158696   -1.0676688646   -1.2511197718
H        3.8539626788   -0.3339935297    0.0460719329
H       -0.1905879861   -1.8094357392   -0.0471004255
H        3.7980805292   -0.3258767588    2.5207576375
H       -0.2398613976   -1.8121100675    2.4297903491
H        3.8170650081   -1.5220270844    4.5877630900
H        2.7093538385   -1.8950328866    5.9231238501
H        2.7664604719   -2.9481392764    4.4904799841
H        0.7352846680    2.5892335858    4.1906476661
H        0.6422306971    1.3624330427    2.8886915745
H       -0.4418796493    1.2514339071    4.3362840400
H        0.7439874601   -1.4573049589    4.4874071485
24   
Generated by ForceBalance from scan.xyz: Frame 18 of 24
C        1.8526525241   -1.0771754024   -0.1683350879
C        2.9562351130   -0.6494364368    0.5786965476
C        0.7005374827   -1.5162947692    0.4906294930
C        2.9138218622   -0.6618092724    1.9744180357
C        0.6558777274   -1.5233001731    1.8879792694
C        1.7591764181   -1.0992321454    2.6436453113
C        2.7826490335   -1.9437129424    4.8366683924
C        0.4807156583    1.5187088271    3.9908600966
C        1.6827622803   -1.1247612049    4.1495065198
O        1.3596398878    0.4793029091    6.2902774204
O        3.0665885733    1.1620313474    4.5174734404
S        1.7580700466    0.5798492538    4.8742309475
H        1.8908377618   -1.0676902910   -1.2544651335
H        3.8527209385   -0.3015400303    0.0722493772
H       -0.1611975273   -1.8526414908   -0.0799086057
H        3.7637185213   -0.3038346529    2.5460342214
H       -0.2435821840   -1.8655965269    2.3957336604
H        3.7729263175   -1.5483879149    4.6018080297
H        2.6513088737   -1.9370400681    5.9214298223
H        2.7265974891   -2.9755000557    4.4788676023
H        0.8221406058    2.5553080695    4.0050185553
H        0.4038688813    1.1639306219    2.9632119995
H       -0.4582195132    1.4247043378    4.5370718916
H        0.7011728021   -1.4894719354    4.4674852643
24   
Generated by ForceBalance from scan.xyz: Frame 19 of 24
C        3.9326432234    2.8916294806    3.2912005344
C        4.7361809081    1.9838786462    2.5916538986
C        4.4252319625    4.1642935456    3.5942695264
C        6.0271712828    2.3411617689    2.1973397578
C        5.7159542720    4.5229231380    3.1940947134
C        6.5293926573    3.6186355343    2.4947832597
C        9.0413206644    3.1416471871    2.6405242729
C        6.7503642246    5.1004910198   -0.3547225887
C        7.9217410918    4.0336573077    2.0896017972
O        9.3898424152    4.7839900233   -0.0362195356
O        7.9266362913    2.7032352453   -0.2588839031
S        8.1286311534    4.0746492896    0.2480328324
H        2.9291597982    2.6082963882    3.5976421302
H        4.3552071819    0.9951549307    2.3496340832
H        3.8095116361    4.8750125684    4.1393042995
H        6.6362898086    1.6417159890    1.6342169264
H        6.0964596977    5.5141035631    3.4326837525
H        8.9292993334    2.1118066197    2.2951099024
H       10.0213480650    3.5115587274    2.3297037216
H        8.9892207439    3.1485365901    3.7328130657
H        6.3465658721    4.5845933885   -1.2267551556
H        5.9845090066    5.1825643722    0.4168776977
H        7.1553984647    6.0728041311   -0.6351650887
H        8.1017786062    5.0725998623    2.3823622995
24   
Generated by ForceBalance from scan.xyz: Frame 20 of 24
C        3.9394968488    2.8858475022    3.2668847348
C        4.7431616047    1.9829183805    2.5613692259
C        4.4366456066    4.1532347676    3.5843773879
C        6.0369822614    2.3402440437    2.1762514247
C        5.7299625821    4.5132319492    3.1940358953
C        6.5425327995    3.6126776786    2.4892355426
C        9.0524439173    3.1305437466    2.6460933264
C        6.7479575752    5.0648732431   -0.3550726075
C        7.9378049106    4.0263168554    2.0921522081
O        9.3915444601    4.8176140674   -0.0188739920
O        7.9926701354    2.6944632052   -0.2612578018
S        8.1496370249    4.0691493202    0.2519492926
H        2.9337464610    2.6031633872    3.5664883689
H        4.3601596278    0.9978976497    2.3077271913
H        3.8211268332    4.8602404866    4.1343809266
H        6.6466393836    1.6441394397    1.6093158730
H        6.1131221373    5.5002130478    3.4458584183
H        8.9395658064    2.1019401410    2.2974857431
H       10.0349885230    3.4987666248    2.3409512306
H        8.9954296147    3.1350854241    3.7381835667
H        6.1659698589    4.4340596298   -1.0265262736
H        6.1325491669    5.3834321296    0.4870271153
H        7.1702394136    5.9244394530   -0.8757473101
H        8.1188804480    5.0645631718    2.3861087192
24   
Generated by ForceBalance from scan.xyz: Frame 21 of 24
C        3.9468641092    2.8812511501    3.2254191660
C        4.7638774343    1.9864765719    2.5248135146
C        4.4352318309    4.1480342647    3.5585899312
C        6.0617343780    2.3508179950    2.1601890347
C        5.7325533903    4.5148000700    3.1885515472
C        6.5587098992    3.6225596781    2.4894433557
C        9.0701192652    3.1455008975    2.6579827853
C        6.7418189051    5.0662687305   -0.3224377063
C        7.9563550145    4.0447038934    2.1091273490
O        9.3849238578    4.9103218667    0.0158442738
O        8.0691192941    2.7386500350   -0.2637660266
S        8.1721908608    4.1096905809    0.2710111636
H        2.9380788173    2.5928861613    3.5089927534
H        4.3879818071    1.0019434884    2.2589581437
H        3.8097410238    4.8491248909    4.1049152929
H        6.6815401837    1.6602395811    1.5972011699
H        6.1087572632    5.5012274484    3.4527548434
H        8.9641476550    2.1216099147    2.2937515209
H       10.0533659406    3.5217529254    2.3648267390
H        9.0060180654    3.1342331951    3.7496484933
H        6.0192892231    4.3791078845   -0.7604336568
H        6.2959969348    5.6036704428    0.5159137923
H        7.1328484283    5.7779479503   -1.0504330458
H        8.1327392285    5.0802423477    2.4143220344
24   
Generated by ForceBalance from scan.xyz: Frame 22 of 24
C        3.9343639906    2.8806482058    3.2059142309
C        4.7553985900    1.9780989591    2.5199932625
C        4.4232532851    4.1486653559    3.5335672835
C        6.0575955524    2.3360575287    2.1647618437
C        5.7250664883    4.5087847139    3.1729537324
C        6.5552408846    3.6088978890    2.4890479547
C        9.0661004093    3.1145241459    2.6484349240
C        6.7212241988    5.0602319586   -0.2877387608
C        7.9558294094    4.0255614922    2.1129105729
O        9.3624505732    4.9239224035    0.0165259807
O        8.0618472167    2.7450702538   -0.2763414894
S        8.1600192077    4.1093109334    0.2754811217
H        2.9221510182    2.5973341056    3.4822778346
H        4.3791518432    0.9926028264    2.2582670068
H        3.7946279033    4.8558760041    4.0682771783
H        6.6800710243    1.6393940185    1.6122234360
H        6.1012794947    5.4965251551    3.4319760471
H        8.9540036071    2.0951307919    2.2736145792
H       10.0503404293    3.4885391310    2.3555869488
H        9.0061560431    3.0920493425    3.7401486231
H        5.8904226325    4.3824059484   -0.4778063648
H        6.4585274695    5.7917074625    0.4784829176
H        7.0466147762    5.5823584847   -1.1889685734
H        8.1386321488    5.0568349439    2.4282366748
24   
Generated by ForceBalance from scan.xyz: Frame 23 of 24
C        3.9436714838    2.8580886971    3.1450282948
C        4.7878127238    1.9665153593    2.4728482221
C        4.4089323849    4.1332118741    3.4796408663
C        6.0901052133    2.3434030664    2.1383892231
C        5.7111354910    4.5118551100    3.1401130183
C        6.5644188988    3.6231592356    2.4702764642
C        9.0811619403    3.1463552008    2.6237796310
C        6.7298856409    5.1540642537   -0.2574561677
C        7.9627760270    4.0606921404    2.1113317204
O        9.3706495675    5.0147405805    0.0336065654
O        8.0654227017    2.8463651564   -0.3105554654
S        8.1686407129    4.1952943588    0.2769152549
H        2.9312698121    2.5606476083    3.4053606083
H        4.4296989943    0.9757926353    2.2055055358
H        3.7615335124    4.8315977178    4.0034310138
H        6.7302666907    1.6560636285    1.5946401914
H        6.0686853613    5.5054037556    3.4030079297
H        8.9819669443    2.1369870787    2.2194906361
H       10.0618766890    3.5393800229    2.3444054017
H        9.0188841999    3.0919894767    3.7142129916
H        5.8414755962    4.5246671678   -0.2277110386
H        6.6219671039    6.0236329196    0.3931787756
H        6.9586381475    5.4800879491   -1.2738231796
H        8.1354945632    5.0844705248    2.4556988180
24   
Generated by ForceBalance from scan.xyz: Frame 24 of 24
C        3.9383815130    2.8410237020    3.1532601193
C        4.7854596272    1.9512181963    2.4824840696
C        4.4006315557    4.1176319930    3.4865285812
C        6.0871743400    2.3304319486    2.1482192203
C        5.7021114356    4.4989519967    3.1471622857
C        6.5581351071    3.6117339391    2.4786064140
C        9.0751415200    3.1381757966    2.6335770785
C        6.7522054325    5.1737773088   -0.2541872456
C        7.9557426720    4.0522625254    2.1217792143
O        9.3910534526    4.9847098228    0.0467245881
O        8.0385630319    2.8461443732   -0.3005694033
S        8.1708778510    4.1924888634    0.2877890114
H        2.9265470767    2.5413652346    3.4132805041
H        4.4298595519    0.9594467917    2.2157331090
H        3.7512514445    4.8152009092    4.0089560820
H        6.7287945573    1.6443204923    1.6048671454
H        6.0566215386    5.4941628085    3.4075803418
H        8.9782057606    2.1297825084    2.2263649628
H       10.0556017875    3.5336415217    2.3569594910
H        9.0108611251    3.0807691251    3.7237003626
H        5.8319497487    4.6459599497   -0.0057616157
H        6.7942934934    6.1549002857    0.2211809468
H        6.8616510738    5.2676145146   -1.3363576026
H        8.1265031421    5.0748021382    2.4713621926
