29   

C        1.8051178497    4.7066114870   -3.2802514995
C        1.9096598917    5.2524720459   -1.9990990487
C        1.1981812472    3.4612520011   -3.4547642016
C        1.4218091310    4.5473492974   -0.8928424842
C        0.7108719137    2.7569267397   -2.3481325021
C        0.8485549361    3.2749993255   -1.0405837177
C        0.2759675730    2.6257793909    0.1917838203
C       -0.6919811777   -1.5255707676   -0.0005346645
C        0.2354427928   -0.8698677562   -1.0321685119
C       -1.6710177481   -0.4827450886    0.5525873435
C        0.9697185577    0.3191614633   -0.4044047357
C       -0.9171528778    0.7123824612    1.1428507726
N       -0.0019222566    1.2700659541    0.1449486554
O       -0.0859465306    3.3083963864    1.1443429440
H        2.1786834769    5.2556672024   -4.1374152032
H        2.3610576057    6.2284117324   -1.8600496557
H        1.0895741368    3.0474613190   -4.4510171850
H        1.4934020237    4.9961221711    0.0931342047
H        0.1973725347    1.8186609808   -2.5206462837
H       -0.0945173528   -1.9376890022    0.8198940433
H       -1.2453340122   -2.3491885970   -0.4629202965
H       -0.3564531119   -0.5247057327   -1.8860019507
H        0.9616499523   -1.6025990923   -1.3974811101
H       -2.3062277970   -0.9339898816    1.3212381202
H       -2.3190822816   -0.1310849041   -0.2567549432
H        1.6386077903    0.7716254398   -1.1402226510
H        1.6067504893   -0.0439150314    0.4093659918
H       -1.6476909540    1.4606473695    1.4695500811
H       -0.3473260021    0.3961142856    2.0231829987
29   

C        1.8785038409    4.6475313661   -3.2837351297
C        2.0457674907    5.1570753914   -1.9934326476
C        1.1335965489    3.4817506754   -3.4782393800
C        1.4788441244    4.4951837114   -0.8980696840
C        0.5677911667    2.8210320026   -2.3822099616
C        0.7577989427    3.3052174171   -1.0702888146
C        0.1226482582    2.6820841782    0.1431417382
C       -0.6061602962   -1.5052702322   -0.0002312709
C        0.2652288495   -0.8015327878   -1.0491313599
C       -1.6089880444   -0.5085644452    0.5939210329
C        0.9714332316    0.4083333739   -0.4293116450
C       -0.8855945199    0.7065814584    1.1815923164
N       -0.0206725747    1.3103150615    0.1654569471
O       -0.3378778814    3.3865280574    1.0344731356
H        2.3137251033    5.1634316739   -4.1323738972
H        2.6077404480    6.0714243627   -1.8394753818
H        0.9829230736    3.0962931412   -4.4803709437
H        1.5977056992    4.9105066028    0.0978567604
H       -0.0388109593    1.9392323995   -2.5549294056
H        0.0298652497   -1.9036707148    0.7976467872
H       -1.1401419545   -2.3441833214   -0.4578915981
H       -0.3640356702   -0.4696225613   -1.8811991373
H        1.0081978250   -1.5010036245   -1.4447005986
H       -2.2056565343   -0.9944217499    1.3722789856
H       -2.2918087782   -0.1712230139   -0.1927068681
H        1.5967558634    0.8932697472   -1.1821722352
H        1.6494808259    0.0623562735    0.3582628600
H       -1.6363665420    1.4186159691    1.5413637091
H       -0.2792528685    0.4007751423    2.0408090431
29   

C        1.9172371259    4.5730274913   -3.2657278572
C        2.1254301128    5.0364180953   -1.9633482206
C        1.0663780463    3.4870325634   -3.4895607714
C        1.4897237337    4.4093908162   -0.8852766184
C        0.4321344240    2.8611220956   -2.4107183595
C        0.6528598945    3.3047590175   -1.0913114293
C       -0.0369390100    2.6934606582    0.0982890449
C       -0.5404253830   -1.5007786651    0.0025923219
C        0.2877774518   -0.7544769394   -1.0523572548
C       -1.5560380052   -0.5437357107    0.6396219264
C        0.9740742883    0.4646218291   -0.4284130039
C       -0.8519484651    0.6791386440    1.2351639955
N       -0.0318494650    1.3230502510    0.2065025505
O       -0.6073428807    3.4035322076    0.9178354528
H        2.4061277367    5.0621698249   -4.1008936801
H        2.7734410497    5.8876480219   -1.7871454739
H        0.8901598950    3.1358418954   -4.5000907563
H        1.6407360601    4.7847914758    0.1218933076
H       -0.2449599114    2.0343813934   -2.5954990595
H        0.1243658052   -1.8966962227    0.7778861805
H       -1.0620523518   -2.3452385607   -0.4591279601
H       -0.3690111396   -0.4258214204   -1.8642245812
H        1.0406277907   -1.4257617303   -1.4770150522
H       -2.1211068234   -1.0611788619    1.4211636077
H       -2.2660945717   -0.2099500961   -0.1241952041
H        1.5648693540    0.9792855983   -1.1893446091
H        1.6823410748    0.1271977366    0.3358426495
H       -1.6124384203    1.3600266497    1.6323524792
H       -0.2140947963    0.3734443035    2.0711222877
29   

C        1.9536986118    4.5060398489   -3.2911415203
C        2.2165407198    4.9180642837   -1.9810841821
C        1.0036829548    3.5085607867   -3.5293627227
C        1.5329467946    4.3300876313   -0.9102712197
C        0.3221666678    2.9216786780   -2.4574201084
C        0.5885659209    3.3207272298   -1.1339230950
C       -0.1414099641    2.7241810341    0.0409898917
C       -0.4752295768   -1.4453246901    0.0314744299
C        0.3247758297   -0.6782315170   -1.0309012955
C       -1.4862188558   -0.5070762244    0.7042540407
C        1.0098100310    0.5425343505   -0.4087684604
C       -0.7804071209    0.7150725101    1.2999760502
N        0.0032020765    1.3776856913    0.2551823682
O       -0.8203425692    3.4309221238    0.7753781889
H        2.4795838558    4.9653078815   -4.1207860201
H        2.9450476659    5.6988935905   -1.7935989044
H        0.7894579418    3.1950436680   -4.5449356494
H        1.7285631467    4.6627535902    0.1039779734
H       -0.4242297073    2.1580499415   -2.6475310484
H        0.2094097867   -1.8454881540    0.7869879369
H       -0.9987039943   -2.2884453221   -0.4306492439
H       -0.3513407209   -0.3477344953   -1.8260552377
H        1.0761881728   -1.3363711259   -1.4780877931
H       -2.0281527728   -1.0408935233    1.4910994912
H       -2.2169551537   -0.1704957186   -0.0386745466
H        1.5748700703    1.0726126068   -1.1790494242
H        1.7400504788    0.2089328816    0.3361555077
H       -1.5351758285    1.3810814593    1.7313751455
H       -0.1157186657    0.4048389933    2.1128998112
29   

C        1.9895085193    4.4306570022   -3.3297758186
C        2.2932138204    4.7752304828   -2.0090594833
C        0.9579318987    3.5244634448   -3.5926020507
C        1.5668771688    4.2125830212   -0.9528467427
C        0.2343270234    2.9629162888   -2.5347440590
C        0.5360635878    3.2990662160   -1.2029874935
C       -0.2392574638    2.7103111832   -0.0512225979
C       -0.4120242623   -1.4090489454    0.0438545291
C        0.3943560680   -0.6292082724   -1.0051473617
C       -1.4336585703   -0.4830385930    0.7191618214
C        1.0637235724    0.5939145531   -0.3700200120
C       -0.7383171739    0.7391758150    1.3275486519
N        0.0382313131    1.4124189910    0.2849942795
O       -1.0519223650    3.3874338748    0.5650752372
H        2.5481632264    4.8707073354   -4.1483491362
H        3.0872388377    5.4839750951   -1.8022262023
H        0.7139045708    3.2618424717   -4.6158650366
H        1.7970265773    4.4911844152    0.0701731004
H       -0.5721000615    2.2676209653   -2.7415075016
H        0.2685582555   -1.8130280988    0.8009012053
H       -0.9273678760   -2.2505031397   -0.4303504906
H       -0.2759426713   -0.2983810739   -1.8052319449
H        1.1548320031   -1.2789939535   -1.4491861207
H       -1.9756644494   -1.0270817449    1.4988701703
H       -2.1632449128   -0.1454021001   -0.0245537839
H        1.6282676550    1.1341145675   -1.1342819023
H        1.7909611902    0.2659123201    0.3802111851
H       -1.4945092043    1.3969337254    1.7688047845
H       -0.0699028603    0.4269165082    2.1365375501
29   

C        1.9597774084    4.4102606298   -3.3030147229
C        2.3244892956    4.6304120911   -1.9713058630
C        0.8475313371    3.6161167238   -3.5969084617
C        1.5784828776    4.0548856240   -0.9359369287
C        0.1047951877    3.0418472681   -2.5593022075
C        0.4674564300    3.2511289130   -1.2180446058
C       -0.3382812286    2.6448241007   -0.0958331504
C       -0.3290287261   -1.4195522670    0.0978552269
C        0.4854034901   -0.6210901692   -0.9315010491
C       -1.3826360816   -0.5166780581    0.7561661622
C        1.1142717697    0.6164796211   -0.2818338607
C       -0.7228576796    0.7185157808    1.3777609917
N        0.0518520592    1.4085301857    0.3454717757
O       -1.2834748578    3.2495576698    0.3933961415
H        2.5335603171    4.8603119271   -4.1055309949
H        3.1814627173    5.2529387841   -1.7397171174
H        0.5555869967    3.4506386372   -4.6279159521
H        1.8581497820    4.2372873088    0.0962021427
H       -0.7646165713    2.4350467364   -2.7887204604
H        0.3432409501   -1.8133214114    0.8675128439
H       -0.8180013462   -2.2690392893   -0.3898189007
H       -0.1735071028   -0.3032140232   -1.7463886552
H        1.2688113214   -1.2542658185   -1.3593001235
H       -1.9267055933   -1.0734410328    1.5253553094
H       -2.1060483775   -0.1927860204    0.0002879951
H        1.6808799892    1.1698133674   -1.0354471420
H        1.8321242352    0.3069739465    0.4850162433
H       -1.4954253130    1.3612945071    1.8127680867
H       -0.0581408658    0.4184864296    2.1943469799
29   

C        2.0135267383    4.4404924336   -3.3394684338
C        2.4312127079    4.4847812448   -2.0060942160
C        0.8140061583    3.8041123060   -3.6706069813
C        1.6517733947    3.8891113771   -1.0073823749
C        0.0384218797    3.2094840042   -2.6691512128
C        0.4557238615    3.2344389562   -1.3281257146
C       -0.4009551480    2.6217430880   -0.2491176929
C       -0.2782352874   -1.3978582746    0.1726488342
C        0.5546501194   -0.6283950193   -0.8638865584
C       -1.3707392999   -0.4891300646    0.7545114649
C        1.1374263075    0.6514730052   -0.2531829457
C       -0.7542767568    0.7849506542    1.3401318135
N        0.0389815591    1.4471841895    0.3035105214
O       -1.4451480321    3.1586401285    0.0978353493
H        2.6131492970    4.9064105796   -4.1135257852
H        3.3553263876    4.9878339574   -1.7443382615
H        0.4791133390    3.7780449164   -4.7015093145
H        1.9737841320    3.9386797147    0.0272553352
H       -0.9006968158    2.7304366326   -2.9253837451
H        0.3751068316   -1.7432742993    0.9808100239
H       -0.7340309031   -2.2778702714   -0.2925503963
H       -0.0833958690   -0.3615042150   -1.7131055932
H        1.3638019296   -1.2632989113   -1.2377543135
H       -1.9291320006   -1.0220605822    1.5302747803
H       -2.0748475986   -0.2137447089   -0.0380105810
H        1.7109747506    1.1804206431   -1.0186706938
H        1.8392154718    0.3949382937    0.5472882669
H       -1.5502503020    1.4312951633    1.7249094005
H       -0.1095077227    0.5337865029    2.1885646535
29   

C        2.0040102575    4.4822077148   -3.3445084566
C        2.4607594984    4.3647124876   -2.0288679518
C        0.7514370666    3.9697120049   -3.6920742653
C        1.6678471408    3.7296541807   -1.0656286703
C       -0.0370643457    3.3353827013   -2.7257722553
C        0.4186642098    3.1916231022   -1.4044098548
C       -0.4615813800    2.5462008064   -0.3670669440
C       -0.2496571568   -1.3958366818    0.2697938948
C        0.5921090149   -0.6574389183   -0.7817111864
C       -1.3544048697   -0.4743406115    0.8062052632
C        1.1566776448    0.6500631780   -0.2127218004
C       -0.7504321857    0.8229970142    1.3527214086
N        0.0449420713    1.4570684856    0.3002046945
O       -1.5791988712    2.9909156035   -0.1361939046
H        2.6142007853    4.9785482786   -4.0908942600
H        3.4260678742    4.7737554406   -1.7524436036
H        0.3851025638    4.0707512712   -4.7075469018
H        2.0224236294    3.6585780477   -0.0429615537
H       -1.0177465074    2.9554327702   -2.9931121205
H        0.3951364444   -1.7093362148    1.0975052171
H       -0.6944901961   -2.2939538786   -0.1708480927
H       -0.0364513209   -0.4275124182   -1.6487236182
H        1.4109622488   -1.2989291120   -1.1216798863
H       -1.9186225925   -0.9829527457    1.5939252457
H       -2.0511152290   -0.2312319570   -0.0033923537
H        1.7303172018    1.1521747277   -0.9953704468
H        1.8531194306    0.4317303289    0.6035805219
H       -1.5513316677    1.4789311328    1.7104722524
H       -0.1102679319    0.6047902376    2.2136220498
29   

C        1.9521021120    4.5616820707   -3.2966229393
C        2.4479152567    4.2845356388   -2.0202569673
C        0.6635404178    4.1491768462   -3.6430040816
C        1.6581560684    3.5898808287   -1.0962458673
C       -0.1211837169    3.4548690058   -2.7158456976
C        0.3702120281    3.1489363833   -1.4342014986
C       -0.5136245038    2.4340216378   -0.4489236937
C       -0.2068821574   -1.4248390029    0.4093648951
C        0.6235568934   -0.7225150326   -0.6741454216
C       -1.3228125162   -0.4943613379    0.9040927546
C        1.1701523394    0.6178446602   -0.1674021520
C       -0.7339395446    0.8331136396    1.3926511154
N        0.0519997049    1.4359654201    0.3146187933
O       -1.6806547976    2.7777519760   -0.3024751432
H        2.5601041925    5.1039013755   -4.0122337752
H        3.4419679867    4.6165156220   -1.7424529566
H        0.2664347734    4.3729851225   -4.6267802135
H        2.0482655213    3.4027644246   -0.1016259028
H       -1.1284020711    3.1515774899   -2.9834185767
H        0.4422031079   -1.6929677921    1.2494987740
H       -0.6401029051   -2.3470672704    0.0086932670
H       -0.0091409253   -0.5410968809   -1.5496560365
H        1.4510898367   -1.3668135112   -0.9867787736
H       -1.8813701619   -0.9746037495    1.7132836131
H       -2.0220849774   -0.2958785186    0.0844614217
H        1.7270097898    1.0877573990   -0.9810277766
H        1.8764605551    0.4484535367    0.6520638264
H       -1.5417741966    1.4951527844    1.7228657836
H       -0.0907651643    0.6598984515    2.2614437610
29   

C        1.9576474630    4.6534267213   -3.3048736505
C        2.4834974988    4.2306629995   -2.0824025977
C        0.6397886877    4.3349383505   -3.6362550434
C        1.6946936394    3.4849490725   -1.1979881731
C       -0.1435957638    3.5894568703   -2.7488470281
C        0.3730958681    3.1380447618   -1.5192833069
C       -0.5151527882    2.3495080386   -0.5965922448
C       -0.1957492188   -1.4182315918    0.4911369890
C        0.6390699119   -0.7725140425   -0.6224429250
C       -1.3094754569   -0.4601236184    0.9335662622
C        1.1886038983    0.5897311773   -0.1819595382
C       -0.7168880864    0.8878912528    1.3592047653
N        0.0777577817    1.4404006854    0.2603439713
O       -1.7123170740    2.6048804764   -0.5290629454
H        2.5656354514    5.2341981028   -3.9895722622
H        3.5017001544    4.4892167409   -1.8142192680
H        0.2193023407    4.6686780165   -4.5782842350
H        2.1177860491    3.1954395800   -0.2425224407
H       -1.1708815295    3.3555476052   -3.0104257852
H        0.4496022181   -1.6466071562    1.3457062178
H       -0.6308203047   -2.3574775193    0.1343276453
H        0.0087204872   -0.6326950390   -1.5072657602
H        1.4653789742   -1.4335663948   -0.9016493942
H       -1.8743842789   -0.8977447798    1.7622081538
H       -2.0038926512   -0.2999648822    0.1014196364
H        1.7402644833    1.0144006360   -1.0234644189
H        1.8982357568    0.4596604348    0.6418427990
H       -1.5235415938    1.5693657975    1.6508528708
H       -0.0802215260    0.7545654698    2.2396943029
29   

C        1.9379979782    4.7666737092   -3.2793112929
C        2.4990915185    4.2038491189   -2.1323682980
C        0.5950910761    4.5326112300   -3.5737667723
C        1.7207565962    3.4034737907   -1.2870287281
C       -0.1774996141    3.7324519094   -2.7257241223
C        0.3695258337    3.1418234348   -1.5677926079
C       -0.5160935644    2.2740913200   -0.7136222254
C       -0.2138866745   -1.4025494023    0.6069675540
C        0.6336742799   -0.8211195765   -0.5307165639
C       -1.3294994509   -0.4182109109    0.9791082809
C        1.1836102678    0.5613725345   -0.1601433404
C       -0.7380470110    0.9501023024    1.3384944424
N        0.0788736466    1.4458954107    0.2283664508
O       -1.7305403224    2.4451706244   -0.7227418352
H        2.5386713577    5.3885428959   -3.9336955311
H        3.5385422622    4.3956092177   -1.8909671796
H        0.1469402172    4.9712346994   -4.4582928178
H        2.1843810375    3.0175311134   -0.3869451360
H       -1.2218092440    3.5614066958   -2.9682227175
H        0.4206492826   -1.5838306099    1.4806679765
H       -0.6472583071   -2.3592272289    0.2974822839
H        0.0123013181   -0.7279429458   -1.4279716559
H        1.4604651007   -1.4985656906   -0.7658157350
H       -1.9085304338   -0.8076512759    1.8218605111
H       -2.0110034587   -0.3030738916    0.1289944046
H        1.7361478511    0.9360377002   -1.0247371284
H        1.8907469745    0.4741948371    0.6714584623
H       -1.5473658056    1.6491450968    1.5764504815
H       -0.1186210473    0.8636987106    2.2369007616
29   

C        1.8843193014    4.6142157440   -3.5347700180
C        2.1087698523    3.2655957109   -3.2594407726
C        0.8792098912    5.2956697894   -2.8508178498
C        1.3349775302    2.6027751988   -2.2986016715
C        0.1092929530    4.6286182787   -1.8925884075
C        0.3195241318    3.2657482849   -1.5883655174
C       -0.5218261705    2.6362666259   -0.5067391755
C        0.1629157565   -1.4314045640    0.6245734720
C        1.2845711965   -0.5652014707    0.0355367273
C       -1.1946180472   -0.9627529294    0.0853266321
C        1.0245151601    0.9123480284    0.3452778171
C       -1.4061411948    0.5279921952    0.3652732327
N       -0.2880606062    1.3022504040   -0.1759871354
O       -1.5363844258    3.1995268714   -0.1091477135
H        2.4821443044    5.1281748578   -4.2792046166
H        2.8799013941    2.7270021279   -3.7986698832
H        0.6926424436    6.3432898043   -3.0589095244
H        1.5230567367    1.5468212888   -2.1553998916
H       -0.6644546879    5.1810386944   -1.3684163631
H        0.1708551278   -1.3457135762    1.7166231064
H        0.3248417136   -2.4829852850    0.3671488797
H        1.3270748420   -0.7101695246   -1.0488659670
H        2.2479182562   -0.8688156314    0.4568227824
H       -2.0015590061   -1.5423861487    0.5444958489
H       -1.2309433547   -1.1306850276   -0.9958556415
H        1.8350640786    1.5289505573   -0.0507434994
H        1.0319010480    1.0558292464    1.4312902772
H       -2.3527839937    0.8435122171   -0.0871634259
H       -1.4788601004    0.6978246470    1.4451067258
29   

C        1.9442758726    4.5898250093   -3.4600783134
C        2.0409945136    3.2070858404   -3.2987269013
C        1.0114483855    5.3063185469   -2.7105645235
C        1.2120727534    2.5446799675   -2.3850198052
C        0.1859798950    4.6394975731   -1.7992886028
C        0.2739641300    3.2451463553   -1.6088681681
C       -0.6309372608    2.5946446853   -0.5969014588
C        0.2316538781   -1.3936550289    0.6690264004
C        1.3069861201   -0.5094067820    0.0238999783
C       -1.1534597540   -0.9865418173    0.1514977343
C        1.0102455314    0.9684912713    0.2974628278
C       -1.4113018405    0.5022105370    0.4007195255
N       -0.3338071959    1.3029228027   -0.1837076268
O       -1.6967400288    3.1201298876   -0.2940742654
H        2.5837541416    5.1038565442   -4.1690092999
H        2.7537380181    2.6436081350   -3.8903252042
H        0.9226521028    6.3798680212   -2.8339333090
H        1.2919351623    1.4664751378   -2.3181033619
H       -0.5366793179    5.2109097468   -1.2249425297
H        0.2645686039   -1.2749472474    1.7574928878
H        0.4224120883   -2.4464984591    0.4377933370
H        1.3232919047   -0.6854220812   -1.0565237425
H        2.2914866768   -0.7699974255    0.4246104806
H       -1.9285524644   -1.5823443409    0.6436403344
H       -1.2090054134   -1.1827976900   -0.9241440661
H        1.7880724153    1.5925176226   -0.1489605575
H        1.0535662851    1.1471947626    1.3773285771
H       -2.3796433265    0.7697117788   -0.0364864278
H       -1.4663526271    0.6958917674    1.4774481961
29   

C        2.0244866227    4.5798109411   -3.3812252927
C        2.0125703877    3.1844463002   -3.3307018963
C        1.1474886825    5.3070739768   -2.5749268815
C        1.1307516261    2.5196872818   -2.4700307991
C        0.2688292876    4.6376425460   -1.7165208837
C        0.2538436721    3.2319678160   -1.6370129072
C       -0.7185122337    2.5597071338   -0.7068303022
C        0.2716501573   -1.3418499129    0.6906425563
C        1.3120293372   -0.4458222532    0.0056060902
C       -1.1333745786   -0.9749626403    0.1974722338
C        0.9914270373    1.0304991072    0.2595247220
C       -1.4215056363    0.5107242317    0.4314648566
N       -0.3741550529    1.3262138034   -0.1870526446
O       -1.8289477679    3.0432389135   -0.5179240945
H        2.7038847774    5.0964058036   -4.0500319465
H        2.6807670273    2.6151587573   -3.9670405660
H        1.1415324547    6.3905292523   -2.6161625180
H        1.1198168780    1.4357149742   -2.4744732751
H       -0.4172452035    5.2112556946   -1.1011313602
H        0.3260528596   -1.2034290797    1.7758936538
H        0.4809372728   -2.3940632749    0.4729256502
H        1.3068653804   -0.6403964176   -1.0717026395
H        2.3111859783   -0.6784042379    0.3868206593
H       -1.8835159180   -1.5817742198    0.7141909532
H       -1.2070359770   -1.1881944314   -0.8739088845
H        1.7449217186    1.6583810048   -0.2213223520
H        1.0620727634    1.2319791757    1.3338583262
H       -2.4062907268    0.7457592879    0.0129021193
H       -1.4582626659    0.7190605766    1.5060876856
29   

C        2.0564042548    4.5566337100   -3.2888201079
C        1.9736811539    3.1633322879   -3.3478478590
C        1.2162843256    5.2636430814   -2.4257933917
C        1.0575696644    2.4799349764   -2.5394217527
C        0.3030696000    4.5754844219   -1.6195314801
C        0.2217359212    3.1717670371   -1.6503990003
C       -0.7972227827    2.4656673114   -0.7978951973
C        0.3209109152   -1.3298210421    0.7169876981
C        1.3227462735   -0.4144024248    0.0002417133
C       -1.1056501546   -0.9947944045    0.2637449878
C        0.9794810786    1.0563799283    0.2561090639
C       -1.4196905274    0.4847852120    0.5041884454
N       -0.4063923041    1.3168197263   -0.1485420159
O       -1.9472928056    2.8832084359   -0.7330895432
H        2.7616013366    5.0884338209   -3.9178280557
H        2.6129359890    2.6119024964   -4.0281371696
H        1.2644186529    6.3460592719   -2.3850025063
H        0.9877459029    1.4004324213   -2.6159910939
H       -0.3598634655    5.1305125748   -0.9633791625
H        0.4032662930   -1.1870579325    1.7998755296
H        0.5463194540   -2.3780112602    0.4959194481
H        1.2915495671   -0.6133388605   -1.0758326785
H        2.3369534679   -0.6244297989    0.3538170491
H       -1.8270731519   -1.6172486849    0.8022416338
H       -1.2053080635   -1.2117033314   -0.8048808017
H        1.7055669723    1.6943012885   -0.2526995256
H        1.0795296708    1.2677819934    1.3261240130
H       -2.4232634691    0.6949488076    0.1187765709
H       -1.4271781113    0.6956632777    1.5787607689
29   

C        2.0989349186    4.5257167229   -3.2484899225
C        1.9387711918    3.1466003611   -3.4083227494
C        1.3076804424    5.2131359705   -2.3245243693
C        0.9933970629    2.4570590410   -2.6399486660
C        0.3647534976    4.5191030909   -1.5582264441
C        0.2081405226    3.1291489630   -1.6930707911
C       -0.8442122980    2.4050396348   -0.8950834800
C        0.3295506977   -1.2700573610    0.7522143014
C        1.3086411879   -0.3506973336    0.0088033501
C       -1.1112529680   -0.9421225509    0.3387127764
C        0.9655329619    1.1194898950    0.2679722343
C       -1.4251248592    0.5364018658    0.5877329526
N       -0.4330125161    1.3659064177   -0.0996549513
O       -2.0180257756    2.7482593603   -0.9600390184
H        2.8265034587    5.0627919403   -3.8467980737
H        2.5406066223    2.6123074134   -4.1348610298
H        1.4163707307    6.2854792016   -2.2067667773
H        0.8620873924    1.3902348165   -2.7851385191
H       -0.2626382619    5.0582602085   -0.8558864946
H        0.4406935866   -1.1266870336    1.8323939787
H        0.5538077715   -2.3172712971    0.5253317779
H        1.2510493915   -0.5520333925   -1.0657819401
H        2.3326918355   -0.5548925462    0.3364964528
H       -1.8140947937   -1.5681401855    0.8971966312
H       -1.2398823590   -1.1599785907   -0.7267273889
H        1.6736081604    1.7562768118   -0.2675323062
H        1.0950438105    1.3397064539    1.3329737074
H       -2.4426778208    0.7421051793    0.2388627090
H       -1.3976850590    0.7496186118    1.6613802898
29   

C        2.1036060973    4.4907723442   -3.2036363681
C        1.8690565248    3.1392548882   -3.4732397170
C        1.3691027009    5.1375489134   -2.2057212210
C        0.9046654996    2.4360098669   -2.7418843754
C        0.4066586948    4.4304530844   -1.4763472715
C        0.1739387177    3.0681984938   -1.7274923633
C       -0.8892720635    2.3177926723   -0.9654632325
C        0.3476002383   -1.2116564617    0.7975669488
C        1.3039822021   -0.2719096729    0.0488855315
C       -1.1053896316   -0.9003447718    0.4119647061
C        0.9428592925    1.1920049844    0.3203695389
C       -1.4329051924    0.5727688936    0.6766035408
N       -0.4638988048    1.4114957359   -0.0312514368
O       -2.0758169401    2.5442578461   -1.1645171413
H        2.8460610672    5.0386100095   -3.7732218724
H        2.4284893092    2.6377338273   -4.2549427831
H        1.5378127037    6.1890005140   -2.0017893332
H        0.7163538939    1.3914463611   -2.9654924844
H       -0.1748900169    4.9382266230   -0.7140667069
H        0.4742863377   -1.0773273268    1.8771258363
H        0.5825462602   -2.2534811147    0.5569734551
H        1.2357087984   -0.4666392736   -1.0264074849
H        2.3351516142   -0.4631824161    0.3616746028
H       -1.7894889727   -1.5393421939    0.9788803181
H       -1.2508081689   -1.1129329967   -0.6524812720
H        1.6330721454    1.8407402333   -0.2249523912
H        1.0826421067    1.4127215257    1.3838953636
H       -2.4613760798    0.7713767817    0.3572379676
H       -1.3812282989    0.7818348941    1.7500885005
29   

C        2.0565433737    4.4477696698   -3.1558478003
C        1.7403815734    3.1434432401   -3.5480785920
C        1.4013650283    5.0234811682   -2.0632458087
C        0.7716494046    2.4161648933   -2.8466074454
C        0.4342733095    4.2931011263   -1.3634900740
C        0.1149901674    2.9794732965   -1.7455068607
C       -0.9363997098    2.1890865916   -1.0064844303
C        0.3889961612   -1.1655494293    0.8993527498
C        1.3185122730   -0.1964907010    0.1530971205
C       -1.0725164723   -0.9068261997    0.5051819033
C        0.9037616779    1.2563945998    0.4095584217
C       -1.4487485144    0.5570716279    0.7558125785
N       -0.5057580655    1.4164723704    0.0385988742
O       -2.1141815478    2.2558898412   -1.3332676155
H        2.8025353034    5.0141659257   -3.7021945566
H        2.2405120223    2.6973160736   -4.4003703870
H        1.6367135350    6.0380863881   -1.7619244981
H        0.5210156060    1.4085131063   -3.1606234599
H       -0.0814611780    4.7453650136   -0.5231286084
H        0.5046202425   -1.0223671358    1.9789509336
H        0.6610825845   -2.1997544321    0.6649939814
H        1.2667159796   -0.4004605264   -0.9215753851
H        2.3530590248   -0.3494209985    0.4755758148
H       -1.7371141517   -1.5634309597    1.0751262619
H       -1.2067844614   -1.1330403126   -0.5579928915
H        1.5752066431    1.9236298807   -0.1373216995
H        1.0242859795    1.4928238710    1.4719909043
H       -2.4832770762    0.7235527217    0.4375928959
H       -1.4028601661    0.7785043327    1.8270498440
29   

C        2.0604663196    4.4440672308   -3.1556852444
C        1.6625134680    3.2037617275   -3.6644154530
C        1.4914356867    4.9263219416   -1.9730908808
C        0.6971699379    2.4466717833   -2.9903364219
C        0.5275351278    4.1668979124   -1.3004007233
C        0.1238952267    2.9175151631   -1.8028996571
C       -0.9153942193    2.0836017344   -1.0971213059
C        0.4074753464   -1.1131114980    0.9826497791
C        1.3377809837   -0.1361138694    0.2473890477
C       -1.0472622341   -0.8944924383    0.5417387662
C        0.8830219779    1.3125717113    0.4596721328
C       -1.4592266899    0.5658739874    0.7525176117
N       -0.5168262311    1.4292583557    0.0394896749
O       -2.0533754192    1.9966250569   -1.5402605297
H        2.8040020997    5.0333772141   -3.6807300725
H        2.0966592209    2.8304493720   -4.5851323034
H        1.7920973333    5.8911932280   -1.5803697644
H        0.3823080035    1.4896069458   -3.3928795976
H        0.0812192804    4.5464889083   -0.3875598513
H        0.4876952660   -0.9488864446    2.0624055458
H        0.7090655015   -2.1448314130    0.7748393479
H        1.3246236923   -0.3622204881   -0.8241462656
H        2.3649220014   -0.2590908919    0.6044174279
H       -1.7140570285   -1.5537979715    1.1059289651
H       -1.1466729019   -1.1440298022   -0.5201348090
H        1.5563638407    1.9803878722   -0.0837097550
H        0.9649193295    1.5758967421    1.5194063231
H       -2.4890464210    0.7078651787    0.4079676910
H       -1.4433666509    0.8100423941    1.8196509767
29   

C        1.8501906706    4.4523205152   -3.1940628993
C        0.5185088371    4.5714017263   -2.7843838779
C        2.7419289177    3.6775858805   -2.4462178617
C        0.0784906654    3.9138730771   -1.6296048420
C        2.2998983944    3.0201665519   -1.2926799874
C        0.9593508783    3.1269401888   -0.8775414477
C        0.4508480617    2.4438189795    0.3644946993
C       -1.2071234982   -1.1875491574    0.0749900906
C       -0.6637634382   -0.4025449324   -1.1283782347
C       -1.2896901103   -0.2768349018    1.3084507226
C        0.6865993056    0.2437802283   -0.7960670163
C        0.0739914232    0.3585585963    1.5973275208
N        0.5268349420    1.0730192780    0.4028019599
O       -0.0086097177    3.0988404353    1.2918156020
H        2.1919877664    4.9659503677   -4.0857764403
H       -0.1732684646    5.1788981732   -3.3570548275
H        3.7773453555    3.5915443514   -2.7562181240
H       -0.9522156689    4.0187925944   -1.3066945579
H        2.9970018908    2.4288199759   -0.7088119156
H       -0.5417324639   -2.0302525993    0.2900836356
H       -2.1980487500   -1.5905167291   -0.1581012516
H       -1.3784444836    0.3821953932   -1.3986666064
H       -0.5549289625   -1.0685509868   -1.9898916589
H       -1.6243456565   -0.8510412256    2.1778349927
H       -2.0226306162    0.5167224289    1.1268333129
H        1.0296763909    0.8049246967   -1.6684168386
H        1.4340391274   -0.5327244808   -0.6025849676
H       -0.0065996011    1.0223409111    2.4648126006
H        0.8014678335   -0.4171676837    1.8573476442
29   

C        1.8805583043    4.5310270927   -3.1485610903
C        0.5728838045    4.7477761284   -2.7042220942
C        2.7026568396    3.6234688741   -2.4746079335
C        0.0856306654    4.0526737700   -1.5912064941
C        2.2138527972    2.9287603497   -1.3625715842
C        0.8909203757    3.1245347830   -0.9182011646
C        0.3294387656    2.4302020805    0.2927165648
C       -1.1410839725   -1.2576489869    0.1695991227
C       -0.6365684676   -0.4990184729   -1.0663264039
C       -1.2405188451   -0.3054161229    1.3694714627
C        0.6941514177    0.2054098271   -0.7746736165
C        0.1058263659    0.3820413972    1.6189262159
N        0.5249391812    1.0711664282    0.3972186980
O       -0.2424044123    3.0717060577    1.1662343742
H        2.2590093317    5.0734103694   -4.0078479404
H       -0.0634286412    5.4606601653   -3.2165257750
H        3.7219873045    3.4645430465   -2.8081931392
H       -0.9246843692    4.2370759715   -1.2399566216
H        2.8644354112    2.2414398637   -0.8326711745
H       -0.4463618252   -2.0700749777    0.4070403618
H       -2.1207953254   -1.7001732331   -0.0378763097
H       -1.3807343338    0.2507296167   -1.3558399414
H       -0.5144794281   -1.1911400226   -1.9052072236
H       -1.5482488014   -0.8574274118    2.2627895187
H       -2.0001198827    0.4576486948    1.1673132995
H        0.9973917684    0.7491055113   -1.6720248760
H        1.4729163722   -0.5364001243   -0.5689440668
H        0.0154323046    1.0733981837    2.4637433614
H        0.8599380256   -0.3613425534    1.8967661217
29   

C        1.9376500747    4.6024089912   -3.1052328405
C        0.6597681803    4.9009782382   -2.6250759990
C        2.6759807539    3.5711156150   -2.5192777763
C        0.1165237223    4.1620165922   -1.5677071882
C        2.1315724268    2.8326807792   -1.4626247667
C        0.8294446242    3.1020724471   -0.9897505518
C        0.2101696836    2.3915637721    0.1829030555
C       -1.0915159282   -1.3332907370    0.2658948177
C       -0.6327224572   -0.6143941766   -1.0099514150
C       -1.2015973339   -0.3310601398    1.4227153407
C        0.6790317013    0.1445740797   -0.7749351044
C        0.1271636401    0.4071263931    1.6179649309
N        0.5103726477    1.0558023403    0.3624348831
O       -0.4541118168    3.0147665003    1.0035926106
H        2.3597934749    5.1785675373   -3.9210743485
H        0.0901334047    5.7117583858   -3.0651877919
H        3.6762096755    3.3514711925   -2.8754430515
H       -0.8689816898    4.4146799813   -1.1889684888
H        2.7314073226    2.0592547066   -0.9957673341
H       -0.3673117109   -2.1121504331    0.5264128103
H       -2.0600106961   -1.8146204923    0.0953107187
H       -1.4059017016    0.0979359436   -1.3174576608
H       -0.5030072786   -1.3379584737   -1.8207172625
H       -1.4786376859   -0.8507042388    2.3449657454
H       -1.9875939127    0.3986621547    1.1991134010
H        0.9382536773    0.6616277822   -1.7013160775
H        1.4875383793   -0.5616588832   -0.5588899662
H        0.0289849287    1.1337894402    2.4318303659
H        0.9072351963   -0.3003327419    1.9169709349
29   

C        1.9962378961    4.6922636112   -3.0681401458
C        0.7560057015    5.0577083046   -2.5403896962
C        2.6430572389    3.5508509585   -2.5899987000
C        0.1566419748    4.2747674624   -1.5470713490
C        2.0430554528    2.7682820960   -1.5970475038
C        0.7680906892    3.0993706704   -1.0844893482
C        0.0934719097    2.3673443462    0.0458908221
C       -1.0412486559   -1.3818086715    0.3746451732
C       -0.6362086494   -0.7170831903   -0.9468051962
C       -1.1661889210   -0.3204908125    1.4750781087
C        0.6514106720    0.0994682098   -0.7835561445
C        0.1391300887    0.4730971339    1.6028131386
N        0.4849115239    1.0651225231    0.3085310300
O       -0.6531345172    2.9673524124    0.8122344157
H        2.4623067871    5.3022766615   -3.8339163691
H        0.2590408291    5.9545817158   -2.8928018217
H        3.6191145377    3.2805598766   -2.9770397333
H       -0.7980114260    4.5855672415   -1.1338784851
H        2.5928583885    1.9191576565   -1.2081581422
H       -0.2832150875   -2.1180758821    0.6613589059
H       -1.9943724091   -1.9063587123    0.2513702258
H       -1.4414499618   -0.0500338157   -1.2730685364
H       -0.4977235226   -1.4776085178   -1.7215259915
H       -1.4086339567   -0.7962473315    2.4301208973
H       -1.9817526328    0.3674960292    1.2262871296
H        0.8607621018    0.5800503713   -1.7419127227
H        1.4919268228   -0.5651221896   -0.5576576161
H        0.0280550753    1.2421591527    2.3750771279
H        0.9475898791   -0.1890857833    1.9287490041
29   

C        2.0467111588    4.7868511580   -3.0195104965
C        0.8528162430    5.2003129753   -2.4265991404
C        2.5978815833    3.5518857696   -2.6747567822
C        0.2017666280    4.3728056510   -1.5046811491
C        1.9472237200    2.7240221423   -1.7527685778
C        0.7089210699    3.1030459687   -1.1822024210
C       -0.0175743968    2.3397513217   -0.1006412949
C       -0.9907942600   -1.4163053100    0.4929076449
C       -0.6335527776   -0.8193554361   -0.8727009196
C       -1.1450165447   -0.2916292667    1.5234541204
C        0.6227913756    0.0549250895   -0.7841665013
C        0.1299572389    0.5581026525    1.5825842602
N        0.4487764766    1.0798805817    0.2510465536
O       -0.8480295039    2.9068478498    0.6027388386
H        2.5530040426    5.4310287583   -3.7297572756
H        0.4315996398    6.1686576441   -2.6724620707
H        3.5427689440    3.2430150354   -3.1075767489
H       -0.7148837600    4.7285287665   -1.0444236647
H        2.4460235791    1.8076942835   -1.4638800229
H       -0.1987354251   -2.1012203774    0.8129076266
H       -1.9231213240   -1.9855185203    0.4182304618
H       -1.4699174247   -0.2051084809   -1.2234766091
H       -0.4777735179   -1.6196722464   -1.6028009745
H       -1.3588108820   -0.7129527106    2.5103234599
H       -1.9897662649    0.3464761563    1.2412793067
H        0.7844113423    0.4889241811   -1.7737288650
H        1.4950471040   -0.5620670870   -0.5438943866
H       -0.0053503530    1.3723725412    2.3029486783
H        0.9652872777   -0.0497680631    1.9444629752
