29   

C        1.8452152488   -3.6859375385   -0.9187748671
C        0.8848310087   -3.5529971133    0.0701268511
C        5.3029871539    1.3381337872    0.0192912032
C        5.9503885520    1.1948222477   -1.1981256866
C        2.7224197325   -2.6349512279   -1.1765916264
C        0.7894919415   -2.3548788520    0.7718700981
C        4.2202107783    0.5032704479    0.2715014286
C        5.5085052137    0.2260866765   -2.0997771100
C        2.6735102619   -1.4065386280   -0.4628430914
C        1.6469081890   -1.2660116751    0.5149330792
C        3.7831421112   -0.4293819808   -0.6924102924
C        1.1423078022    1.1626279047    0.3374964311
C        0.8134484360   -0.0250792237    2.5284686131
N        4.4623654186   -0.5743732244   -1.8512594762
N        1.3596328506   -0.0422232200    1.1606582032
H        1.9255292048   -4.6087998768   -1.4819147761
H        0.2020370591   -4.3679080866    0.2818235952
H        5.6366541490    2.0624836575    0.7550440201
H        6.8019947730    1.8136667747   -1.4506970665
H        3.4797166698   -2.8086377543   -1.9328798809
H       -0.0035366146   -2.2640885356    1.5010471216
H        3.7372638581    0.5600145318    1.2359176773
H        6.0337529955    0.1127470498   -3.0408781977
H        1.4035685057    0.9801929644   -0.7093298196
H        1.7522177182    1.9917932608    0.7082955542
H        0.0872125909    1.4515800910    0.3702731047
H        1.0861704126    0.9080700407    3.0309020569
H        1.2252111279   -0.8526533421    3.1149303250
H       -0.2776294067   -0.1103910586    2.5037292307
29   

C        1.8976136257   -3.7418054415   -0.8424311180
C        0.8965188234   -3.5796982573    0.1043718203
C        5.3460896067    1.2351766641    0.1032145960
C        5.8501409369    1.2613673156   -1.1895374053
C        2.7820966792   -2.6957662200   -1.0971395394
C        0.7706744827   -2.3610919644    0.7696242855
C        4.3027190550    0.3543403623    0.3634754566
C        5.3070162691    0.4139240108   -2.1583278430
C        2.6941234735   -1.4565919458   -0.4191014052
C        1.6369080243   -1.2790541895    0.5145080442
C        3.7783665851   -0.4592762850   -0.6577745888
C        1.2515698967    1.1741074839    0.2981907792
C        0.7385764822    0.0136060110    2.4668609084
N        4.3001609627   -0.4334765302   -1.9010752518
N        1.3606843478   -0.0375528708    1.1330111861
H        1.9998255867   -4.6803166527   -1.3753074951
H        0.2066904897   -4.3895968586    0.3124704381
H        5.7543048669    1.8691343751    0.8834830292
H        6.6644163315    1.9240092505   -1.4539066337
H        3.5734277806   -2.8626927202   -1.8199811567
H       -0.0472904325   -2.2520613888    1.4680786106
H        3.8962710135    0.2792972501    1.3634549008
H        5.7173565933    0.4393697825   -3.1610154383
H        1.4709519884    0.9544863540   -0.7510979968
H        1.9463115264    1.9428277049    0.6490628021
H        0.2310666635    1.5669894050    0.3429055352
H        0.9866968221    0.9575457155    2.9619564595
H        1.1139796988   -0.8007278187    3.0947473618
H       -0.3497861215   -0.0681367128    2.3828707584
29   

C        1.9323668684   -3.8049188736   -0.7679919140
C        0.8973079526   -3.6078618401    0.1380701997
C        5.4024242242    1.1178324826    0.1568440757
C        5.7538659191    1.3157132951   -1.1719169296
C        2.8303246123   -2.7700982973   -1.0234881449
C        0.7522270554   -2.3679863333    0.7630104100
C        4.4013427012    0.1898733302    0.4187215932
C        5.1030820074    0.5900313767   -2.1741273600
C        2.7177184600   -1.5199625320   -0.3814660989
C        1.6331032205   -1.2986721885    0.5061115081
C        3.7813441371   -0.5063832564   -0.6318730151
C        1.3402355076    1.1654785897    0.2415884145
C        0.6977649786    0.0518257925    2.3999515716
N        4.1380335550   -0.3043151350   -1.9143957323
N        1.3701999057   -0.0390582871    1.0932369639
H        2.0462470429   -4.7590628983   -1.2698110435
H        0.1960552916   -4.4080525250    0.3455463853
H        5.8891324119    1.6618763964    0.9596593249
H        6.5276300054    2.0235507176   -1.4408041733
H        3.6454423168   -2.9395748775   -1.7189985003
H       -0.0872977095   -2.2340777092    1.4309332215
H        4.0852983549   -0.0099237191    1.4348388662
H        5.3904597382    0.7549031231   -3.2059391143
H        1.5196032963    0.9134771139   -0.8080555825
H        2.0979801865    1.8834974487    0.5682816513
H        0.3538882139    1.6364858143    0.2962255991
H        0.9386915822    1.0045266187    2.8817330254
H        1.0388078782   -0.7511610407    3.0611345879
H       -0.3874881789   -0.0187215860    2.2757097166
29   

C        1.9521085720   -3.8358014365   -0.6827285196
C        0.8841064443   -3.5979660997    0.1761709937
C        5.5059470087    0.9887334347    0.1974829567
C        5.6985159159    1.3633880404   -1.1261343029
C        2.8682924687   -2.8171705830   -0.9402972674
C        0.7262843825   -2.3357118188    0.7540099879
C        4.5333311574    0.0287162916    0.4511365139
C        4.9220500433    0.7770881582   -2.1306918244
C        2.7372984111   -1.5498919047   -0.3437834735
C        1.6264035381   -1.2835485427    0.4945676865
C        3.7936252875   -0.5290809385   -0.6023128492
C        1.4093164012    1.1837244648    0.1769386801
C        0.6682251698    0.1254342342    2.3322079775
N        3.9851715762   -0.1488208023   -1.8783368177
N        1.3749888359   -0.0066511314    1.0475528400
H        2.0744149017   -4.8074297296   -1.1476587191
H        0.1678801623   -4.3847179633    0.3839001226
H        6.0875757970    1.4269117082    1.0019200259
H        6.4417475324    2.1053327770   -1.3891528582
H        3.7055424003   -3.0062435064   -1.6034887533
H       -0.1341911210   -2.1717671330    1.3877657971
H        4.3247440540   -0.2993898029    1.4615754577
H        5.0829487546    1.0826833692   -3.1578815187
H        1.5346183791    0.9010278281   -0.8726652163
H        2.2278340447    1.8479508974    0.4686668846
H        0.4626969781    1.7278823798    0.2505657701
H        0.9116974316    1.0850577720    2.7987842027
H        0.9779029569   -0.6671470546    3.0208167430
H       -0.4141733562    0.0693549191    2.1793579277
29   

C        1.9991452653   -3.8552296831   -0.6173165593
C        0.8983928702   -3.5981255929    0.1942881401
C        5.6666736355    0.8111660425    0.1971992379
C        5.6938974609    1.3925649014   -1.0640832994
C        2.9155216272   -2.8370036541   -0.8771732680
C        0.7113004876   -2.3192666062    0.7259577101
C        4.6976351277   -0.1580358336    0.4294058230
C        4.7636728703    0.9938613866   -2.0292296625
C        2.7479762081   -1.5525159347   -0.3314225761
C        1.6123390347   -1.2690391655    0.4639839547
C        3.8007642451   -0.5217667704   -0.5846063487
C        1.3735869733    1.1850488008    0.0906229381
C        0.6378885527    0.1680074432    2.2684228454
N        3.8312553497    0.0582504442   -1.7972424269
N        1.3486111014    0.0160016885    0.9884355345
H        2.1456714862   -4.8411296428   -1.0436153115
H        0.1814164331   -4.3838790493    0.4032291352
H        6.3695386543    1.1015270299    0.9712217774
H        6.4252854111    2.1526143244   -1.3078795458
H        3.7775805010   -3.0387046720   -1.5035328851
H       -0.1688777504   -2.1410937030    1.3281612808
H        4.6138544321   -0.6417697145    1.3941013089
H        4.7959891018    1.4598619863   -3.0070739083
H        1.4187994353    0.8718134424   -0.9566752460
H        2.2334579599    1.8226583440    0.3146975180
H        0.4546600709    1.7675135546    0.2082213424
H        0.8758268025    1.1371331872    2.7179272696
H        0.9498877265   -0.6104825393    2.9718941039
H       -0.4438211959    0.1036406624    2.1142318414
29   

C        2.0277130261   -3.8399213564   -0.5268801042
C        0.8937527452   -3.5635991609    0.2308362978
C        5.8732937591    0.5715700332    0.1200994994
C        5.7549471658    1.3688894288   -1.0109130347
C        2.9431832457   -2.8220567837   -0.7921178955
C        0.6772202349   -2.2681608210    0.7079528415
C        4.8744640755   -0.3696681947    0.3415074040
C        4.6598673602    1.1994902076   -1.8636908217
C        2.7384016235   -1.5168157545   -0.3114322746
C        1.5784643829   -1.2201666268    0.4409067150
C        3.8010539589   -0.4901630182   -0.5520688742
C        1.2019752209    1.1923465387   -0.0190358825
C        0.6259400873    0.2381523833    2.2327670244
N        3.7004877330    0.2889410562   -1.6428202385
N        1.2929227188    0.0708946285    0.9317293992
H        2.2007966757   -4.8406463642   -0.9061289471
H        0.1766898808   -4.3482300022    0.4436892195
H        6.7087969064    0.6782216343    0.8042059147
H        6.4999954171    2.1203071409   -1.2395378122
H        3.8320696989   -3.0408696126   -1.3734606261
H       -0.2223957284   -2.0736303024    1.2756873988
H        4.9052949210   -1.0180974584    1.2075342254
H        4.5817341758    1.8296007049   -2.7418796626
H        1.2106399762    0.8287046459   -1.0509476394
H        2.0331025725    1.8878149040    0.1275976940
H        0.2577218397    1.7273692932    0.1208425271
H        0.8772590060    1.2136939515    2.6605164332
H        0.9627735850   -0.5309782161    2.9350542981
H       -0.4602114532    0.1687684016    2.1166393832
29   

C        2.0655900297   -3.8299105593   -0.4288318618
C        0.8908003044   -3.5332604460    0.2546372367
C        6.0386865719    0.3698654217   -0.0107414521
C        5.8141155384    1.3436474181   -0.9746774227
C        2.9872216275   -2.8155127528   -0.6863914136
C        0.6443313717   -2.2226337337    0.6703198420
C        5.0198610374   -0.5489619342    0.2140109678
C        4.6004197437    1.3608070908   -1.6681945338
C        2.7485589061   -1.4906342462   -0.2763564969
C        1.5531230807   -1.1799265895    0.4123991245
C        3.8190005471   -0.4725845785   -0.5076524980
C        0.9829067717    1.1656662752   -0.1353048991
C        0.6352837902    0.2978711521    2.1948534493
N        3.6235733801    0.4697050989   -1.4463316166
N        1.2369775600    0.1153477061    0.8648369270
H        2.2650780668   -4.8437204015   -0.7569682160
H        0.1677221015   -4.3142420814    0.4604573808
H        6.9693439722    0.3273271971    0.5455863965
H        6.5674512737    2.0889426726   -1.1959494083
H        3.9059864033   -3.0532516083   -1.2110489742
H       -0.2810126385   -2.0086974302    1.1879652814
H        5.1345220067   -1.3299526226    0.9544316776
H        4.4411171222    2.1253271155   -2.4195066780
H        1.0380490651    0.7588793092   -1.1497697534
H        1.7116999999    1.9746857300   -0.0327163005
H       -0.0247881018    1.5722406467   -0.0060047094
H        0.9103151463    1.2769756651    2.5990429409
H        1.0023397714   -0.4662022136    2.8874627898
H       -0.4553927692    0.2293156624    2.1331629337
29   

C        0.8204762466   -2.5556950988   -2.1783396904
C       -0.1010221319   -2.6036880456   -1.1392791418
C        5.8823515267    0.0032320980   -1.0072558667
C        5.6896674623    1.3660194618   -0.8181821727
C        1.9867248106   -1.8081150452   -2.0286266051
C        0.1596003138   -1.9205274568    0.0504615048
C        4.7517983680   -0.8061981621   -1.0042207186
C        4.3948331407    1.8642440757   -0.6404810101
C        2.2570034697   -1.0996067603   -0.8417958165
C        1.3395936364   -1.1733106599    0.2405221439
C        3.4803988700   -0.2467082653   -0.8034165243
C        0.4460909791   -0.1260501509    2.3380855895
C        2.9044912847   -0.6173233352    2.1362459646
N        3.3098066464    1.0782095624   -0.6385770791
N        1.5704299402   -0.5963290120    1.5128803914
H        0.6273466013   -3.0861798166   -3.1038337264
H       -1.0143576257   -3.1774942381   -1.2472516569
H        6.8739455934   -0.4127559602   -1.1534511461
H        6.5297086491    2.0489509215   -0.8110214665
H        2.6839027605   -1.7506020916   -2.8570710933
H       -0.5617808358   -2.0070338233    0.8510452711
H        4.8386638719   -1.8752917692   -1.1487883460
H        4.2611080371    2.9304027275   -0.4998446231
H       -0.3372199025    0.3039982020    1.7057958475
H        0.7826451122    0.6559770526    3.0258297752
H        0.0293499944   -0.9542190013    2.9197732386
H        3.3401332042    0.3859360362    2.1431688657
H        3.5755595846   -1.3001894587    1.6077361546
H        2.8267715850   -0.9813074542    3.1652608851
29   

C        0.9611749205   -2.6129029616   -2.1172751311
C       -0.0102762227   -2.6103623059   -1.1255514332
C        5.9461987376    0.0614537068   -1.1272337247
C        5.7670920321    1.3805292416   -0.7321727483
C        2.1302697233   -1.8772546603   -1.9371074445
C        0.2040988654   -1.8910225652    0.0506760358
C        4.8261999375   -0.7627090835   -1.1259501926
C        4.4956196565    1.8225973566   -0.3555476141
C        2.3613215605   -1.1280225333   -0.7636400196
C        1.3849277220   -1.1540145169    0.2749929348
C        3.5733740465   -0.2628370353   -0.7303870079
C        0.4083641052   -0.0627521270    2.3171756035
C        2.8683002310   -0.5756864986    2.2299601871
N        3.4211507261    1.0226625513   -0.3550344380
N        1.5615099577   -0.5592980409    1.5494446271
H        0.8031534992   -3.1707622124   -3.0333163532
H       -0.9270580298   -3.1732490934   -1.2588925731
H        6.9206172908   -0.3114089148   -1.4258240069
H        6.5998860217    2.0720667726   -0.7139293224
H        2.8549610444   -1.8572062206   -2.7430699166
H       -0.5564905719   -1.9429274215    0.8171580632
H        4.9141583769   -1.8001032540   -1.4209227081
H        4.3713289408    2.8553187800   -0.0516074828
H       -0.3489762478    0.3516985586    1.6442955489
H        0.7221079862    0.7372921060    2.9949170064
H       -0.0328670637   -0.8731710787    2.9058297165
H        3.3096023152    0.4253729571    2.2385626229
H        3.5570197977   -1.2704630282    1.7402431534
H        2.7460379277   -0.9154038496    3.2629890095
29   

C        1.0242215677   -2.7125524711   -2.0523462255
C        0.0181916819   -2.6469676152   -1.1005512362
C        5.9337109396    0.1223589425   -1.2986255871
C        5.7821628459    1.3842292569   -0.7424152855
C        2.1987752879   -1.9877462488   -1.8652134481
C        0.2047813633   -1.8774287589    0.0462738042
C        4.8281741937   -0.7211830968   -1.2815720496
C        4.5522916977    1.7503306170   -0.1915631487
C        2.4117910602   -1.1865116099   -0.7181655487
C        1.3902951325   -1.1512207640    0.2807733150
C        3.6066856804   -0.2966030312   -0.7211571715
C        0.3676199526    0.0320439878    2.2495929116
C        2.7948090644   -0.6251033088    2.2995856582
N        3.4927001344    0.9315758963   -0.1771672848
N        1.5305673142   -0.5334733575    1.5479519749
H        0.8872237108   -3.3075472732   -2.9482144281
H       -0.9038264968   -3.1994390874   -1.2412227318
H        6.8784940589   -0.1950629288   -1.7279083502
H        6.6052293100    2.0873680549   -0.7277913950
H        2.9318787444   -2.0158519051   -2.6622040179
H       -0.5822840743   -1.8834324628    0.7873541619
H        4.9173276921   -1.7186774741   -1.6896292011
H        4.4484686190    2.7376701452    0.2428376574
H       -0.3479078212    0.4458168795    1.5321191478
H        0.6844855899    0.8456272120    2.9094462794
H       -0.1251522098   -0.7396997848    2.8493182317
H        3.2543534376    0.3629826617    2.3981261629
H        3.4996532373   -1.2985970531    1.8029502803
H        2.6058481952   -1.0276472071    3.2993740711
29   

C        1.0752027211   -2.7985155824   -1.9569998621
C        0.0433908706   -2.6735707469   -1.0428324029
C        5.8975119025    0.2212822693   -1.4558116089
C        5.7994374789    1.4059756017   -0.7440281359
C        2.2529230396   -2.0782209153   -1.7735984929
C        0.2086677277   -1.8505355864    0.0668490526
C        4.8055799133   -0.6398619812   -1.4232726139
C        4.6357213456    1.6775932989   -0.0254018306
C        2.4550287211   -1.2195321700   -0.6608442599
C        1.3962359170   -1.1277420378    0.3014249714
C        3.6355797977   -0.3075149943   -0.7014551603
C        0.3299875905    0.1644722240    2.1773424625
C        2.7006383937   -0.6503406947    2.3889602283
N        3.5903264434    0.8419674762    0.0017265140
N        1.4978816265   -0.4777405866    1.5550206081
H        0.9552908823   -3.4349283202   -2.8265127438
H       -0.8816324145   -3.2211785333   -1.1828608528
H        6.7948763600   -0.0279252890   -2.0128341380
H        6.6148153923    2.1180433924   -0.7330356652
H        2.9844321895   -2.1634668222   -2.5655433265
H       -0.5984037452   -1.8125716937    0.7851800537
H        4.8884055669   -1.5801481313   -1.9476483970
H        4.5727332499    2.6026235217    0.5355427796
H       -0.3392795045    0.5669704816    1.4105866237
H        0.6513835446    0.9973186141    2.8103214932
H       -0.2167815301   -0.5581579661    2.7913827464
H        3.1805299563    0.3161149881    2.5710975223
H        3.4217743027   -1.3159196924    1.9048502422
H        2.4286336847   -1.0977076519    3.3497065474
29   

C        1.1245111109   -2.8972490917   -1.8586622725
C        0.0825606596   -2.7387772656   -0.9648127093
C        5.8006936733    0.3909891591   -1.6592803247
C        5.8307618932    1.4145420469   -0.7290138206
C        2.2945567705   -2.1589717827   -1.6989491174
C        0.2334147342   -1.8663641104    0.1056973448
C        4.7151595436   -0.4789801584   -1.6275975166
C        4.7932502290    1.5245934256    0.1924898324
C        2.4829041409   -1.2337196012   -0.6328496113
C        1.4110289171   -1.1211462592    0.3171637431
C        3.6679133062   -0.3207191881   -0.6821049408
C        0.3024988250    0.3176541449    2.0512788000
C        2.5593194411   -0.7047234229    2.4913648023
N        3.7549422636    0.6810903444    0.2162149382
N        1.4684909786   -0.4203800572    1.5427617639
H        1.0221384290   -3.5818244172   -2.6931750821
H       -0.8358824558   -3.3016672913   -1.0864649227
H        6.5965805182    0.2706619416   -2.3871050214
H        6.6475679369    2.1246452297   -0.7065079094
H        3.0282676770   -2.3175747300   -2.4737156802
H       -0.5779229258   -1.8029683055    0.8177848768
H        4.7259575848   -1.2746416068   -2.3534631035
H        4.8257701920    2.3251666857    0.9220867522
H       -0.3254611343    0.6602338005    1.2229394511
H        0.6310898693    1.1989972377    2.6104240062
H       -0.2921514552   -0.3227887918    2.7104495602
H        3.0632554728    0.2230069657    2.7795942964
H        3.2983620348   -1.3774914984    2.0450819235
H        2.1610356493   -1.1888327572    3.3880584376
29   

C        1.2185321489   -2.9899666850   -1.7888617244
C        0.2062728345   -2.8682761145   -0.8540249875
C        5.6132543156    0.6394833802   -1.9216707305
C        5.9287352946    1.3395526205   -0.7703861378
C        2.3506640848   -2.1840621365   -1.6920701485
C        0.3494834808   -1.9577419749    0.1867590416
C        4.5030916833   -0.1978940453   -1.8817824409
C        5.1296881916    1.1841440494    0.3597584360
C        2.5151548490   -1.2122444079   -0.6666934756
C        1.4848189032   -1.1357076651    0.3225339213
C        3.7300446921   -0.3439813381   -0.7017562832
C        0.3314601827    0.5094957364    1.8001304189
C        2.4075659863   -0.6805110711    2.5713587796
N        4.0663923503    0.3719312448    0.3884766887
N        1.4994787704   -0.3203813953    1.4698559170
H        1.1311608032   -3.7129744347   -2.5920579381
H       -0.6803337950   -3.4885292014   -0.9203472344
H        6.2026534367    0.7498783751   -2.8260984720
H        6.7780133767    2.0101364423   -0.7402841346
H        3.1072338298   -2.3569914624   -2.4440662096
H       -0.4344734836   -1.9046412083    0.9304626842
H        4.2417763081   -0.7024402542   -2.7985012507
H        5.3775634805    1.7427561006    1.2546208624
H       -0.2640582037    0.7082608698    0.9034948584
H        0.6584860475    1.4700778488    2.2093916714
H       -0.2992650418    0.0004055396    2.5358801195
H        2.9351971885    0.2079175301    2.9315978184
H        3.1508489613   -1.4111398560    2.2365870410
H        1.8431019786   -1.1245449085    3.3968128017
29   

C        1.2679198257   -3.0448527493   -1.7394557703
C        0.2713090639   -2.9560904061   -0.7796485848
C        5.4248488306    0.8461394269   -1.9373878886
C        5.9274987243    1.2956784455   -0.7266339295
C        2.3735011625   -2.1993062356   -1.6668960165
C        0.3965625733   -2.0282988877    0.2516247106
C        4.3102018832    0.0154892226   -1.8983432725
C        5.3042019075    0.9073186464    0.4596590008
C        2.5180303704   -1.2332908567   -0.6401466605
C        1.5030560572   -1.1656709845    0.3552134321
C        3.7231937656   -0.3583729363   -0.6691720454
C        0.3249256675    0.5796320592    1.6708852237
C        2.3093824696   -0.6316469249    2.6227207064
N        4.2338275198    0.1031775503    0.4870872721
N        1.4955323696   -0.2812307773    1.4473184176
H        1.1894777270   -3.7725982111   -2.5392316849
H       -0.5931377418   -3.6086560315   -0.8249836786
H        5.8766491312    1.1392641267   -2.8794326049
H        6.7906700131    1.9479579446   -0.6902264625
H        3.1386895986   -2.3211894156   -2.4235753091
H       -0.3788779381   -1.9817518022    1.0048828212
H        3.8801169132   -0.3179616491   -2.8321724589
H        5.7024050764    1.2693197647    1.4002250897
H       -0.2276953514    0.7249205031    0.7372176571
H        0.6458762552    1.5614841924    2.0316406327
H       -0.3453527066    0.1259705716    2.4078844013
H        2.8649715922    0.2439684131    2.9716801580
H        3.0273199629   -1.4200106882    2.3748732369
H        1.6692687735   -0.9992688851    3.4304455685
29   

C        1.3276438427   -3.1265491604   -1.6684473152
C        0.3213849949   -3.0288301584   -0.7159275447
C        5.2665484054    1.0029152706   -1.9004781671
C        5.9152879058    1.2700554201   -0.7036382180
C        2.4215657603   -2.2641523991   -1.6068118993
C        0.4208925406   -2.0707774013    0.2929752988
C        4.1583514988    0.1645941073   -1.8514561921
C        5.4403801787    0.6975693974    0.4786813286
C        2.5402204025   -1.2863573189   -0.5942492660
C        1.5156377166   -1.1928646973    0.3818408038
C        3.7219663395   -0.3814695332   -0.6292212033
C        0.3147761677    0.5972566809    1.6075885811
C        2.3034764867   -0.5494190688    2.6253332541
N        4.3741048070   -0.1126235608    0.5161220552
N        1.4987088215   -0.2557661403    1.4282842620
H        1.2637127939   -3.8710420579   -2.4539329291
H       -0.5335123019   -3.6943542868   -0.7530672366
H        5.6060130414    1.4350879719   -2.8361300764
H        6.7822511072    1.9176534948   -0.6742829128
H        3.1991843145   -2.3655354307   -2.3552189135
H       -0.3641014331   -2.0099635199    1.0351981698
H        3.6115979144   -0.0564925347   -2.7583820767
H        5.9566473623    0.9146794774    1.4063778945
H       -0.2156148667    0.7195242378    0.6578500037
H        0.6176771491    1.5891247978    1.9565461883
H       -0.3689317062    0.1517251052    2.3371182237
H        2.8951166162    0.3265009005    2.9074381980
H        2.9860745590   -1.3845492112    2.4383588665
H        1.6526416532   -0.8295838722    3.4592141435
29   

C        1.3641832434   -3.1954061514   -1.6151646211
C        0.3261866186   -3.0600825919   -0.6998276054
C        5.1287295259    1.1359922280   -1.8149993604
C        5.9125852324    1.2292719487   -0.6732115060
C        2.4617476933   -2.3379132516   -1.5440694638
C        0.3962906827   -2.0691151112    0.2811556573
C        4.0227879227    0.2952213517   -1.7604548989
C        5.5693216437    0.4880485373    0.4608948982
C        2.5493869017   -1.3370278212   -0.5557260853
C        1.4956787001   -1.1978159683    0.3785327543
C        3.7216987453   -0.4154451732   -0.5864324380
C        0.2632246329    0.5977916758    1.5701438513
C        2.3255015381   -0.4271321970    2.5694339943
N        4.5030828741   -0.3228282442    0.5039589801
N        1.4718364197   -0.2199690405    1.3880434473
H        1.3202847293   -3.9625178411   -2.3799650787
H       -0.5316424939   -3.7212968158   -0.7452922213
H        5.3667011249    1.6977393722   -2.7123533214
H        6.7859707539    1.8684723421   -0.6504659698
H        3.2643329447   -2.4505229117   -2.2644371950
H       -0.4137672180   -1.9805446677    0.9928256172
H        3.3730459205    0.1895036451   -2.6193643528
H        6.1924808680    0.5688395550    1.3437638078
H       -0.2718097123    0.7047258399    0.6211560427
H        0.5375539872    1.5986092898    1.9174014312
H       -0.4049698463    0.1335486979    2.3023396415
H        2.9559000842    0.4502266210    2.7407548899
H        2.9688029978   -1.3026180208    2.4360432176
H        1.7075305543   -0.6050138112    3.4548405769
29   

C        1.4039548313   -3.2642661458   -1.5761063706
C        0.3264911938   -3.0796332131   -0.7156812026
C        4.9992261819    1.2815185739   -1.6908901536
C        5.9146770702    1.1988137929   -0.6502518549
C        2.5073281745   -2.4157294232   -1.4898822217
C        0.3635810797   -2.0508529942    0.2284958059
C        3.8977516477    0.4349889732   -1.6372298701
C        5.6995953488    0.2862979963    0.3867572617
C        2.5583084555   -1.3783464323   -0.5403298445
C        1.4700021642   -1.1892996477    0.3425913224
C        3.7321844934   -0.4523649052   -0.5630165356
C        0.1926997530    0.5833167691    1.5378489350
C        2.3834263740   -0.2471943845    2.4406850543
N        4.6351801115   -0.5277637429    0.4298529536
N        1.4344414349   -0.1740799228    1.3172673934
H        1.3852431831   -4.0609865406   -2.3110626063
H       -0.5363608522   -3.7332289062   -0.7743329771
H        5.1356728491    1.9781719783   -2.5115577268
H        6.7927799072    1.8317138994   -0.6326237044
H        3.3407418412   -2.5574223655   -2.1690381593
H       -0.4772863396   -1.9315585049    0.8983658314
H        3.1480915034    0.4547323028   -2.4175711905
H        6.4244615868    0.2315408962    1.1904388440
H       -0.3670746896    0.6786911495    0.6020028256
H        0.4272491154    1.5916364601    1.8927193685
H       -0.4352498616    0.0794514558    2.2793846049
H        3.0370661833    0.6296516771    2.4458011965
H        2.9962902743   -1.1514481589    2.3746891179
H        1.8400673445   -0.2952576400    3.3893166042
29   

C        1.4309639768   -3.3494758668   -1.5145613342
C        0.3202456576   -3.1137579132   -0.7101084691
C        4.8668694770    1.4334934488   -1.4676837075
C        5.9028805066    1.1661434788   -0.5821381945
C        2.5372165478   -2.5052328805   -1.4251376967
C        0.3284611237   -2.0421821980    0.1867492668
C        3.7700541604    0.5798031049   -1.4389835678
C        5.8049737823    0.0742614433    0.2858590846
C        2.5532663036   -1.4205297239   -0.5308131465
C        1.4388224997   -1.1851560542    0.3065367206
C        3.7324648196   -0.4984879779   -0.5440002479
C        0.1293512593    0.5682512060    1.5127265666
C        2.4365213121   -0.0602539339    2.2845382612
N        4.7432194702   -0.7445978075    0.3071445598
N        1.3947139011   -0.1339507741    1.2457655057
H        1.4358030214   -4.1820091869   -2.2088967581
H       -0.5452172698   -3.7634992272   -0.7728617807
H        4.9092516823    2.2737285908   -2.1529950131
H        6.7847770851    1.7934749848   -0.5555143882
H        3.3981821879   -2.6833552765   -2.0599310860
H       -0.5377740321   -1.8927730682    0.8166713521
H        2.9274151022    0.7365829106   -2.0998818548
H        6.6216048778   -0.1207962002    0.9710046220
H       -0.4582950803    0.6567034131    0.5934433137
H        0.3315687633    1.5798877944    1.8781249922
H       -0.4559588125    0.0281888546    2.2635624111
H        3.0791015555    0.8096203930    2.1221697045
H        3.0478356255   -0.9676929578    2.2869321143
H        1.9752849286    0.0142426152    3.2740537816
29   

C        1.4812567000   -3.4271123195   -1.4971572107
C        0.3422130289   -3.1545431143   -0.7456770338
C        4.7922948821    1.5556466737   -1.1828889259
C        5.9258264791    1.1182176879   -0.5095622590
C        2.5857972356   -2.5812757823   -1.4043465814
C        0.3217886840   -2.0480481357    0.1077699836
C        3.6942644856    0.7033684610   -1.1991469553
C        5.9184343343   -0.1322492144    0.1165822713
C        2.5690204850   -1.4542970481   -0.5644046727
C        1.4305544742   -1.1887652107    0.2332051341
C        3.7544909867   -0.5434834537   -0.5614832982
C        0.0903187163    0.5489701722    1.4393228025
C        2.4607410273    0.0688855608    2.1241965325
N        4.8546742695   -0.9487047579    0.0968684957
N        1.3722029959   -0.1126533810    1.1467069202
H        1.5101370069   -4.2900170775   -2.1527192353
H       -0.5219938852   -3.8055517349   -0.8124048301
H        4.7618251460    2.5227284261   -1.6740731149
H        6.8141483468    1.7351715638   -0.4616923311
H        3.4710760859   -2.7889677468   -1.9953639164
H       -0.5656074847   -1.8785078960    0.7018195068
H        2.7755560617    0.9882614292   -1.6956021905
H        6.8095033565   -0.4571252822    0.6408286133
H       -0.5154911653    0.6240396514    0.5306860843
H        0.2666149540    1.5648975830    1.8063167074
H       -0.4640901542   -0.0119647216    2.1982674030
H        3.0448240399    0.9624675888    1.8865263257
H        3.1222246455   -0.8024602517    2.1378850915
H        2.0464466976    0.1686031035    3.1321333351
29   

C        1.5072529392   -3.4754130617   -1.4354916240
C        0.3465870104   -3.1716544486   -0.7315937945
C        4.7624578897    1.6086964624   -0.9502803584
C        5.9623616827    1.0600996671   -0.5159272726
C        2.6103153498   -2.6280873619   -1.3425053425
C        0.3043833600   -2.0345115206    0.0790778381
C        3.6503819659    0.7749977929   -0.9633831989
C        6.0051491153   -0.2786130072   -0.1137036339
C        2.5725415070   -1.4650597727   -0.5519680131
C        1.4116272999   -1.1728724273    0.2061564846
C        3.7603927920   -0.5630052642   -0.5562964852
C        0.0469779639    0.5747562439    1.3740135626
C        2.4195100925    0.1379854478    2.0773596094
N        4.9277628051   -1.0771936326   -0.1290380705
N        1.3371408173   -0.0787016209    1.0987511295
H        1.5546560837   -4.3636137279   -2.0551958026
H       -0.5167698136   -3.8236662912   -0.7994563467
H        4.6928386499    2.6448488982   -1.2648483543
H        6.8647666728    1.6573180881   -0.4835773760
H        3.5119842060   -2.8613344548   -1.8985165924
H       -0.5992358174   -1.8458711033    0.6419554134
H        2.6823632090    1.1426691567   -1.2794696471
H        6.9486027189   -0.6902754745    0.2251555198
H       -0.5544705139    0.6304612808    0.4610935619
H        0.2109451457    1.5976748865    1.7270052422
H       -0.5060898104    0.0197111399    2.1383005701
H        2.9407577706    1.0769279796    1.8700858441
H        3.1411119915   -0.6842697787    2.0556197867
H        2.0060457422    0.1736726971    3.0899741408
29   

C        1.5888579490   -3.5244016307   -1.3927829777
C        0.3970870400   -3.2066451151   -0.7526216112
C        4.7872711494    1.6269837898   -0.7860808095
C        6.0203847671    1.0231823607   -0.5781347846
C        2.6832788059   -2.6695600245   -1.2746083159
C        0.3163188177   -2.0486439606    0.0228484387
C        3.6652618513    0.8069741597   -0.7623448920
C        6.0861933198   -0.3559644954   -0.3584570810
C        2.6133393498   -1.4811213530   -0.5192632552
C        1.4142511182   -1.1789612701    0.1763363394
C        3.7949077585   -0.5726548544   -0.5330450299
C       -0.0048895205    0.5728201816    1.2729688796
C        2.3312513031    0.1372270599    2.0880142804
N        4.9995270539   -1.1416617424   -0.3372071845
N        1.2978729547   -0.0784516631    1.0571292201
H        1.6673523159   -4.4283130978   -1.9860476226
H       -0.4603846321   -3.8638729869   -0.8415123948
H        4.7004817868    2.6940992815   -0.9624655111
H        6.9317547074    1.6074597386   -0.5865559139
H        3.6036412013   -2.9174308266   -1.7926462851
H       -0.6117673914   -1.8514232823    0.5411289093
H        2.6764196204    1.2187313057   -0.9202792189
H        7.0564376542   -0.8118520501   -0.1997108366
H       -0.5701529080    0.6148668336    0.3365015699
H        0.1410002624    1.6004594873    1.6200597016
H       -0.5856802464    0.0244152166    2.0213807560
H        2.8098764177    1.1112645544    1.9515214270
H        3.0976459407   -0.6429428271    2.0503961012
H        1.8788822245    0.0972823259    3.0837465781
29   

C        1.6298307383   -3.5472884691   -1.3071450157
C        0.4174668570   -3.2092357779   -0.7233841671
C        4.8332660880    1.6366273232   -0.6564412746
C        6.0670071891    1.0015561001   -0.6803051569
C        2.7221886976   -2.6928354644   -1.1728680098
C        0.3149723207   -2.0310669761    0.0147175823
C        3.7030443313    0.8320048502   -0.5703131581
C        6.1253973101   -0.3932093224   -0.6259969671
C        2.6407901632   -1.4782233734   -0.4509408423
C        1.4099696900   -1.1605062222    0.1859902477
C        3.8225811650   -0.5678858160   -0.4941455884
C       -0.0449994272    0.6099504813    1.2047881827
C        2.2378994374    0.1412458170    2.1437588077
N        5.0313623952   -1.1640240481   -0.5426286053
N        1.2600241439   -0.0562181814    1.0567074191
H        1.7265742721   -4.4660713042   -1.8743205528
H       -0.4390350218   -3.8656421262   -0.8265210067
H        4.7510458652    2.7171517937   -0.7118259790
H        6.9837379211    1.5733063185   -0.7491215785
H        3.6478870041   -2.9686233476   -1.6664204415
H       -0.6304774054   -1.8192882920    0.4943706098
H        2.7186999598    1.2812479990   -0.5764957913
H        7.0957265103   -0.8749223513   -0.6547018019
H       -0.5708538723    0.6372218451    0.2450782621
H        0.0953632801    1.6431427217    1.5372250441
H       -0.6613953476    0.0812056732    1.9387896683
H        2.6805043746    1.1397254243    2.0818149129
H        3.0395123486   -0.6020995783    2.0968102876
H        1.7444783889    0.0282373310    3.1140935200
29   

C        1.6739393269   -3.5814829275   -1.2154194096
C        0.4449300984   -3.2189572916   -0.6899531691
C        4.9048776934    1.6314213129   -0.5341728893
C        6.1078284514    0.9917763230   -0.7900502095
C        2.7662440188   -2.7290794083   -1.0712025309
C        0.3271891940   -2.0187377363    0.0048171930
C        3.7742390121    0.8355655208   -0.3882942072
C        6.1342135390   -0.3984766332   -0.9046591868
C        2.6785006656   -1.4835039619   -0.3918546848
C        1.4210212341   -1.1488034358    0.1879897535
C        3.8612798843   -0.5702685624   -0.4669861187
C       -0.0577099031    0.6535365101    1.1119486454
C        2.1410522302    0.1150872046    2.2050978411
N        5.0405885380   -1.1601828051   -0.7607882054
N        1.2385886960   -0.0429811725    1.0487944712
H        1.7848665129   -4.5180967384   -1.7499295938
H       -0.4120099314   -3.8732020122   -0.8027312026
H        4.8429695329    2.7125527935   -0.4658238054
H        7.0219868119    1.5576792201   -0.9167908397
H        3.6933354978   -3.0440282440   -1.5369840446
H       -0.6321095043   -1.7889671313    0.4473048398
H        2.8182342460    1.3171969328   -0.2447025904
H        7.0779023910   -0.8850449448   -1.1216919106
H       -0.5367991711    0.6595752344    0.1276692480
H        0.0886349857    1.6939083705    1.4182075306
H       -0.7200451407    0.1605871180    1.8307316953
H        2.5423129061    1.1323852263    2.2381918653
H        2.9786279239   -0.5871766561    2.1534288063
H        1.5969367763   -0.0856235090    3.1332371253
29   

C        1.7759577940   -3.6107594016   -1.0068601501
C        0.8435563392   -3.4940534330    0.0081105509
C        5.2567032603    1.4652756049   -0.0953321376
C        6.0568885850    1.1373327528   -1.1762974109
C        2.6686648355   -2.5695411709   -1.2501821105
C        0.7900178951   -2.3181151617    0.7475270021
C        4.1396324663    0.6720717618    0.1438452472
C        5.7265940224    0.0322374280   -1.9572742579
C        2.6706005399   -1.3604149045   -0.4942375382
C        1.6638153730   -1.2388202536    0.5075315017
C        3.8096242397   -0.4083300550   -0.7081950655
C        0.9819296941    1.1337884811    0.3878081500
C        0.9658918140   -0.0611541998    2.6018867109
N        4.6464128405   -0.7251895002   -1.7228922329
N        1.3816640123   -0.0378778017    1.1890088080
H        1.8237474821   -4.5149141260   -1.6030938778
H        0.1490994870   -4.3016951525    0.2094390559
H        5.5009879887    2.2995886902    0.5539673963
H        6.9415692553    1.7158008318   -1.4100579140
H        3.3940964971   -2.7467593979   -2.0358424526
H        0.0141320435   -2.2308344714    1.4956725099
H        3.5654706703    0.8959137133    1.0266379199
H        6.3702586449   -0.2285624214   -2.7891741467
H        1.3217050215    1.0358240538   -0.6479211710
H        1.4189642346    2.0458154946    0.8056456771
H       -0.1083805142    1.2286158456    0.3811646095
H        1.3142415214    0.8425648245    3.1111459517
H        1.4014169267   -0.9244447873    3.1151921825
H       -0.1248881557   -0.1162215530    2.6764453070
