17   
Generated by ForceBalance from scan.xyz: Frame 1 of 24
C       -0.5188706112   -0.6965777888    0.9782044547
C        1.5835447732   -1.1937833062   -1.3693876985
C       -0.9844524052   -0.2171964980    3.2418522444
C       -0.6277509750   -0.1873578686   -0.4476599820
C        0.7389227917    0.0318998162   -1.0990133836
O       -0.0266101523   -1.7621118317    1.2994061147
O       -1.0517651325    0.1784086917    1.8531927080
F        1.4536742438    0.9084455115   -0.2929807088
F        0.5213585051    0.7102128439   -2.2876146182
H        1.5805528382   -1.8475221214   -0.4961600065
H        1.1804044681   -1.7383543721   -2.2261224886
H        2.6088892622   -0.8796887527   -1.5770517978
H       -1.4565201101    0.5934389478    3.7957690047
H        0.0567220170   -0.3406100996    3.5473716011
H       -1.5206296284   -1.1564013063    3.3947430105
H       -1.1762085760   -0.9285483953   -1.0355085611
H       -1.1696786430    0.7586386937   -0.4724435158
17   
Generated by ForceBalance from scan.xyz: Frame 2 of 24
C       -0.5577678883   -0.6964411236    0.9749710827
C        1.5626769216   -1.1841240056   -1.3472379104
C       -0.9469479114   -0.1619864032    3.2404878515
C       -0.6782612266   -0.2069939654   -0.4567137612
C        0.6850522979    0.0315098127   -1.1096408823
O       -0.0968029572   -1.7743700740    1.3021111563
O       -1.0371335684    0.2112760551    1.8469845939
F        1.3708713468    0.9419332132   -0.3148815720
F        0.4584935793    0.6831731163   -2.3103413786
H        1.3821127967   -1.9336914307   -0.5752015399
H        1.3422339862   -1.6138144596   -2.3263965559
H        2.6116172755   -0.8853231013   -1.2941785497
H       -1.3753859039    0.6745099702    3.7913831275
H        0.0969874494   -0.3169791503    3.5212255635
H       -1.5115261171   -1.0787052584    3.4244911824
H       -1.2097426972   -0.9667952980   -1.0361408958
H       -1.2376511217    0.7284222531   -0.4926025877
17   
Generated by ForceBalance from scan.xyz: Frame 3 of 24
C       -0.7450990810   -0.6948984192    0.6834567869
C        1.5961729049   -1.3381925133   -1.3477167838
C       -1.3627011873   -0.4776599786    2.9508240400
C       -0.4831092105    0.0518863287   -0.6117081117
C        0.9925937986    0.0205662471   -1.0146752595
O       -0.6460946999   -1.9003621064    0.8199538347
O       -1.1114411319    0.1448534300    1.6707416014
F        1.7152311470    0.6085722564    0.0156260518
F        1.1359337083    0.8720727791   -2.0985228906
H        0.9593024586   -2.1425630855   -0.9776445907
H        1.7118065145   -1.4334722503   -2.4288678507
H        2.5697039647   -1.4302487263   -0.8625793437
H       -1.6438737928    0.3368185517    3.6173994086
H       -0.4604992130   -0.9778906739    3.3092607316
H       -2.1713921828   -1.2068335836    2.8652443396
H       -1.0648858169   -0.4229317101   -1.4061574195
H       -0.7844481059    1.0956573960   -0.5176117943
17   
Generated by ForceBalance from scan.xyz: Frame 4 of 24
C       -0.7321874374   -0.6961197755    0.6795281769
C        1.5971475749   -1.3504369758   -1.3327174681
C       -1.3347402843   -0.4863351952    2.9519557644
C       -0.4818407679    0.0535798116   -0.6161745349
C        0.9892675296    0.0169887090   -1.0329360623
O       -0.6253613387   -1.9011906494    0.8122061278
O       -1.0948718962    0.1401447972    1.6716513572
F        1.7276648062    0.6520838723   -0.0455957530
F        1.0996683142    0.8275648446   -2.1539922451
H        0.8653263756   -2.1466774526   -1.1963235728
H        1.9649996694   -1.3624502674   -2.3604224782
H        2.4332420066   -1.5339946868   -0.6558338957
H       -1.6147020058    0.3254141258    3.6223723653
H       -0.4281266724   -0.9837469858    3.3031643003
H       -2.1409756392   -1.2186671403    2.8702764266
H       -1.0696730431   -0.4193189817   -1.4068772060
H       -0.7798216067    1.0979402867   -0.5182735143
17   
Generated by ForceBalance from scan.xyz: Frame 5 of 24
C       -0.7160217997   -0.6800996510    0.7211245107
C        1.5661357548   -1.3353261414   -1.3217509839
C       -1.3540596634   -0.4865524753    2.9856472575
C       -0.5010800297    0.0716164762   -0.5798856189
C        0.9557937082    0.0319547765   -1.0406508068
O       -0.5418480639   -1.8755674175    0.8657452192
O       -1.1340270730    0.1429562246    1.7032215808
F        1.7277802726    0.7081970129   -0.1097904054
F        1.0121369508    0.8012888729   -2.1961563964
H        0.8003536584   -2.1038091942   -1.4220197435
H        2.1488929632   -1.2736677233   -2.2436797719
H        2.2406226475   -1.6105445373   -0.5097110230
H       -1.6850268404    0.3135239473    3.6468176068
H       -0.4259625766   -0.9317783912    3.3505117615
H       -2.1185654271   -1.2620155685    2.9009178969
H       -1.1120137967   -0.3988233955   -1.3543677608
H       -0.7962968288    1.1158520815   -0.4729254426
17   
Generated by ForceBalance from scan.xyz: Frame 6 of 24
C       -0.6192914192   -0.6380119128    0.7837521271
C        1.5902531447   -1.3406101907   -1.3429995677
C       -1.3835605138   -0.4561475365    3.0101754951
C       -0.4212157108    0.1013414331   -0.5268282320
C        1.0190924163    0.0305353968   -1.0304849515
O       -0.3500852731   -1.8103025629    0.9649887830
O       -1.1512051639    0.1661951067    1.7262652388
F        1.8392800255    0.6796195446   -0.1223491938
F        1.0550019495    0.8047602634   -2.1841985149
H        0.8157387917   -2.0239767953   -1.6922834816
H        2.3520444633   -1.2246719921   -2.1180102676
H        2.0634650837   -1.7563514966   -0.4532193409
H       -1.8131912713    0.3252304062    3.6360570624
H       -0.4416467849   -0.8151850503    3.4303487537
H       -2.0758275263   -1.2944702321    2.9053140242
H       -1.0661281076   -0.3594299621   -1.2798939140
H       -0.6969202404    1.1509959855   -0.4199748860
17   
Generated by ForceBalance from scan.xyz: Frame 7 of 24
C       -0.6042915108   -0.6516798880    0.7893619853
C        1.5841648681   -1.3427460073   -1.3903658359
C       -1.3712639697   -0.4438418059    3.0126167368
C       -0.4319687303    0.0663514085   -0.5366933296
C        1.0024245791    0.0143413158   -1.0600035400
O       -0.3044337606   -1.8122977031    0.9957330512
O       -1.1564480326    0.1576779764    1.7158104317
F        1.8262734687    0.6597055134   -0.1529291843
F        1.0210544035    0.7984456049   -2.2075642248
H        0.8728952048   -1.9367594349   -1.9670867117
H        2.4923025308   -1.1921764550   -1.9794675855
H        1.8352106597   -1.8743581105   -0.4726671883
H       -1.8209971454    0.3387135610    3.6227037888
H       -0.4198287855   -0.7689582538    3.4388971689
H       -2.0411378572   -1.3022093293    2.9260496768
H       -1.0810125019   -0.4164570549   -1.2724328834
H       -0.7241200652    1.1129426187   -0.4438626025
17   
Generated by ForceBalance from scan.xyz: Frame 8 of 24
C       -0.6244865615   -0.6512358291    0.8075636474
C        1.6110643955   -1.3092012285   -1.3529383532
C       -1.3321979063   -0.3969197606    3.0452385092
C       -0.4451583876    0.0511157729   -0.5260300055
C        1.0027997285    0.0324412912   -1.0162387076
O       -0.3671179937   -1.8219068377    1.0163461358
O       -1.1255338880    0.1850483391    1.7382875264
F        1.7886197576    0.6640362768   -0.0633029415
F        1.0519050204    0.8434571148   -2.1407721706
H        1.0349299589   -1.7875603928   -2.1483550601
H        2.6365081846   -1.1523785186   -1.6959335435
H        1.6052096658   -1.9553777128   -0.4751600247
H       -1.7379911926    0.4071666964    3.6580985333
H       -0.3837050362   -0.7536940109    3.4522996718
H       -2.0354204860   -1.2302711293    2.9820587283
H       -1.0654599316   -0.4594269681   -1.2677274363
H       -0.7643722577    1.0913422010   -0.4531137701
17   
Generated by ForceBalance from scan.xyz: Frame 9 of 24
C       -0.6328814148   -0.6615911827    0.7939793933
C        1.6212028077   -1.2977061335   -1.3671628850
C       -1.2867885294   -0.3655466079    3.0424098888
C       -0.4630434431    0.0213418883   -0.5509782351
C        0.9912943939    0.0342256867   -1.0247578382
O       -0.3916479512   -1.8340991181    1.0129895979
O       -1.1014246050    0.1944995567    1.7227556841
F        1.7486821873    0.6588832781   -0.0423290164
F        1.0536730273    0.8674760460   -2.1302923493
H        1.2184379061   -1.6481222269   -2.3211042249
H        2.7019072756   -1.1720931718   -1.4603427789
H        1.3841326177   -2.0367056294   -0.6012889499
H       -1.6673241763    0.4530930369    3.6521758997
H       -0.3343201536   -0.7297927421    3.4332290165
H       -2.0028356820   -1.1895581030    3.0071737651
H       -1.0621605183   -0.5200305142   -1.2883398647
H       -0.8102678742    1.0537821012   -0.4989382016
17   
Generated by ForceBalance from scan.xyz: Frame 10 of 24
C       -0.6525856697   -0.6827550664    0.7650340888
C        1.6447067333   -1.2948596693   -1.3387800850
C       -1.2201665421   -0.3678013094    3.0338870698
C       -0.4806663284   -0.0017083739   -0.5803683077
C        0.9799113574    0.0351315742   -1.0349561849
O       -0.4673810329   -1.8682213242    0.9697259014
O       -1.0484634437    0.1898590131    1.7114634543
F        1.7040522881    0.6955180166   -0.0501124692
F        1.0435066057    0.8519733983   -2.1519194958
H        1.4667178324   -1.5441454500   -2.3881975290
H        2.7200873261   -1.2155049002   -1.1705912087
H        1.2162689948   -2.0886212110   -0.7260599064
H       -1.5379458768    0.4656507987    3.6592899965
H       -0.2758624731   -0.7832271993    3.3921565573
H       -1.9787863177   -1.1534516896    3.0181471709
H       -1.0584260633   -0.5582678124   -1.3231898479
H       -0.8453012648    1.0251125085   -0.5366546944
17   
Generated by ForceBalance from scan.xyz: Frame 11 of 24
C       -0.6637052977   -0.6774112148    0.7671838968
C        1.6203059162   -1.2956359455   -1.3344026746
C       -1.1928467741   -0.3530213958    3.0440731185
C       -0.5147255942   -0.0025644870   -0.5840943276
C        0.9394043398    0.0389382989   -1.0580109663
O       -0.4723924767   -1.8615634362    0.9736587555
O       -1.0447047366    0.1989744944    1.7164533236
F        1.6667853313    0.7413884496   -0.1060324549
F        0.9713171208    0.8245051379   -2.1993353584
H        1.6827910040   -1.4432535580   -2.4150917118
H        2.6297994850   -1.2872626244   -0.9205053759
H        1.0522480965   -2.1208946685   -0.9044941786
H       -1.5015385627    0.4826592143    3.6710565911
H       -0.2418578290   -0.7651659491    3.3882081243
H       -1.9501234085   -1.1401266105    3.0447645835
H       -1.0974842949   -0.5676104640   -1.3163860975
H       -0.8845845395    1.0223918031   -0.5417854675
17   
Generated by ForceBalance from scan.xyz: Frame 12 of 24
C       -0.6294882472   -0.6889558990    0.7556440546
C        1.6543275204   -1.3138522287   -1.3171339093
C       -1.1561952342   -0.3845107981    3.0362214971
C       -0.4808875138   -0.0026588604   -0.5899225719
C        0.9714060331    0.0281448079   -1.0684704249
O       -0.4369891754   -1.8745959015    0.9515432421
O       -1.0086735509    0.1793423452    1.7135247893
F        1.7063833075    0.7659413628   -0.1526695965
F        0.9830368514    0.7758982831   -2.2376585578
H        1.9872254050   -1.3610787306   -2.3556125768
H        2.5224455164   -1.4075300305   -0.6624514234
H        0.9801128680   -2.1447491316   -1.1091990777
H       -1.4638988166    0.4456266405    3.6710182099
H       -0.2053054516   -0.8004530590    3.3760962418
H       -1.9139700253   -1.1711103949    3.0304080221
H       -1.0683100102   -0.5570300832   -1.3261314952
H       -0.8418375103    1.0249862680   -0.5377956423
17   
Generated by ForceBalance from scan.xyz: Frame 13 of 24
C       -0.5957137580   -0.6599154855    0.8128339699
C        1.6181529437   -1.2909651541   -1.3195058605
C       -1.1951463127   -0.3891311483    3.0801189201
C       -0.4935081154    0.0260341431   -0.5373986378
C        0.9368529182    0.0490660535   -1.0749921927
O       -0.3002520452   -1.8212990091    1.0232843289
O       -1.0684718537    0.1782409797    1.7566485925
F        1.7105587522    0.8222908867   -0.2243084517
F        0.8837566633    0.7556708627   -2.2704132118
H        2.1611639534   -1.2540275835   -2.2653683928
H        2.3211667843   -1.4900347098   -0.5086985698
H        0.8955386516   -2.1071251020   -1.3219300733
H       -1.5878209202    0.4144577554    3.7021039507
H       -0.2193273721   -0.7187186656    3.4432008702
H       -1.8812219384   -1.2388527768    3.0640768929
H       -1.1129003110   -0.5238070229   -1.2506746386
H       -0.8498165523    1.0545096349   -0.4719106557
17   
Generated by ForceBalance from scan.xyz: Frame 14 of 24
C       -0.5135154405   -0.6327745634    0.8306938206
C        1.6300658874   -1.3184954288   -1.3718117102
C       -1.2028118279   -0.3720947129    3.0737246151
C       -0.4305057940    0.0355035697   -0.5294919450
C        0.9837591675    0.0284725219   -1.1064401023
O       -0.1425633901   -1.7662688769    1.0700287347
O       -1.0719105993    0.1846683953    1.7460358419
F        1.8019114191    0.7837105232   -0.2824390055
F        0.9082472870    0.7335643559   -2.3023841917
H        2.3530795018   -1.2170961672   -2.1833624364
H        2.1374587341   -1.6589339110   -0.4681394599
H        0.8782216624   -2.0702658972   -1.6162829856
H       -1.6702255057    0.4107056153    3.6700429261
H       -0.2191571358   -0.6283260528    3.4729838778
H       -1.8278875379   -1.2674669595    3.0493410914
H       -1.0802348498   -0.5107340068   -1.2186457456
H       -0.7712986396    1.0696051656   -0.4688988025
17   
Generated by ForceBalance from scan.xyz: Frame 15 of 24
C       -0.4967085355   -0.6306313754    0.8616682491
C        1.6389973950   -1.3072250752   -1.3769126484
C       -1.1955217638   -0.3457035129    3.0988177227
C       -0.4269033475    0.0175097684   -0.5090131549
C        0.9842728978    0.0268746826   -1.0942848960
O       -0.1058926411   -1.7529090574    1.1213600309
O       -1.0721353249    0.1913503873    1.7623378749
F        1.8010470455    0.7742590621   -0.2618362293
F        0.9025968250    0.7447999002   -2.2818379157
H        2.5144016238   -1.1457118198   -2.0096115977
H        1.9380302218   -1.7750656137   -0.4386348153
H        0.9353502619   -1.9778653804   -1.8743050182
H       -1.6785103802    0.4381287580    3.6812060419
H       -0.2081319447   -0.5770792239    3.5039694508
H       -1.8039588049   -1.2527306289    3.0881464082
H       -1.0737522358   -0.5470800686   -1.1862005120
H       -0.7831430814    1.0471493967   -0.4614200074
17   
Generated by ForceBalance from scan.xyz: Frame 16 of 24
C       -0.5354786249   -0.6456256850    0.9089358416
C        1.6488410398   -1.2659485443   -1.3148623482
C       -1.1653751851   -0.3155761486    3.1599188858
C       -0.4634296206   -0.0087906089   -0.4669979193
C        0.9603401377    0.0466426027   -1.0211980433
O       -0.1857123927   -1.7818354915    1.1677944765
O       -1.0562581045    0.2047491648    1.8157245686
F        1.7376918054    0.7831124844   -0.1390953016
F        0.9039045748    0.7960710977   -2.1872933007
H        2.6460655023   -1.0584452777   -1.7096730157
H        1.7222630309   -1.8629801171   -0.4057765167
H        1.0760305809   -1.8256195171   -2.0580584770
H       -1.6022351090    0.4914662065    3.7469943796
H       -0.1773472473   -0.5816232139    3.5415530936
H       -1.8085165006   -1.1982839778    3.1735147605
H       -1.0756588817   -0.6025173973   -1.1512497364
H       -0.8538505691    1.0089708372   -0.4350115615
17   
Generated by ForceBalance from scan.xyz: Frame 17 of 24
C       -0.5424728473   -0.6549882497    0.8988197395
C        1.6516478951   -1.2609440751   -1.3335119533
C       -1.1263777084   -0.2808109289    3.1549137339
C       -0.4801748341   -0.0389592490   -0.4871620766
C        0.9475377003    0.0431139552   -1.0297545285
O       -0.2038531412   -1.7920595509    1.1693924588
O       -1.0373341370    0.2155555624    1.8002395690
F        1.7034300765    0.7678612857   -0.1171659368
F        0.9052072022    0.8170988878   -2.1780491024
H        2.7146865350   -1.0565329273   -1.4826670049
H        1.5204960695   -1.9676051305   -0.5140888567
H        1.2496788440   -1.6839180240   -2.2574116028
H       -1.5433104722    0.5408163222    3.7362065720
H       -0.1340228437   -0.5510273004    3.5221024468
H       -1.7784720636   -1.1560677872    3.1957155243
H       -1.0725502473   -0.6597301730   -1.1650581340
H       -0.8955503623    0.9692537856   -0.4733316071
17   
Generated by ForceBalance from scan.xyz: Frame 18 of 24
C       -0.5686954145   -0.6698164613    0.9103201210
C        1.6500935118   -1.2543995791   -1.2901874650
C       -1.0907340284   -0.2749350375    3.1778083493
C       -0.5132105975   -0.0576749748   -0.4775443111
C        0.9153358035    0.0448492536   -1.0154853977
O       -0.2591609114   -1.8166344144    1.1755747966
O       -1.0179449912    0.2160120094    1.8202282089
F        1.6457039409    0.8013306250   -0.1072030897
F        0.8664476329    0.8018931507   -2.1743830065
H        2.7233043254   -1.0760486523   -1.1873969071
H        1.3429573182   -2.0339485908   -0.5933886125
H        1.4615681094   -1.5647962173   -2.3204584438
H       -1.4710009963    0.5593659816    3.7661249431
H       -0.0984883012   -0.5725691065    3.5234997281
H       -1.7663610754   -1.1311956533    3.2353760863
H       -1.0921716436   -0.6906870698   -1.1556099803
H       -0.9430848505    0.9444815709   -0.4680493728
17   
Generated by ForceBalance from scan.xyz: Frame 19 of 24
C       -0.6058425604   -0.6711906281    0.9202797031
C        1.6207471651   -1.2415394085   -1.2532745752
C       -1.0574443977   -0.2563822453    3.1992287251
C       -0.5708634632   -0.0662462134   -0.4712632659
C        0.8521691303    0.0529581503   -1.0204036164
O       -0.3135907030   -1.8234596229    1.1819443732
O       -1.0116191035    0.2273941039    1.8379368420
F        1.5655283760    0.8648838566   -0.1478147944
F        0.7725612929    0.7663934281   -2.2055816526
H        2.6463409971   -1.1127182477   -0.9006444370
H        1.1661958275   -2.0749692170   -0.7180357998
H        1.6575386458   -1.4513604332   -2.3242003972
H       -1.4025068285    0.5885103996    3.7940772205
H       -0.0629063868   -0.5748973742    3.5187836021
H       -1.7501449966   -1.0970575454    3.2794006017
H       -1.1431426813   -0.7128185220   -1.1417826488
H       -1.0141401133    0.9300544384   -0.4649918569
17   
Generated by ForceBalance from scan.xyz: Frame 20 of 24
C       -0.6202120178   -0.6664772591    0.9554315553
C        1.6020934854   -1.1927741868   -1.2118069002
C       -1.0459688187   -0.2634419057    3.2417345554
C       -0.6159281765   -0.0601015794   -0.4358613669
C        0.7980251949    0.0871460431   -1.0001314540
O       -0.2992067090   -1.8124991343    1.2100593302
O       -1.0303746763    0.2228133996    1.8806728484
F        1.5002850588    0.9497919203   -0.1718740067
F        0.6702680397    0.7586993056   -2.2077240310
H        2.5200224625   -1.1477962003   -0.6232092816
H        1.0370168108   -2.0704889400   -0.8981179291
H        1.8636814036   -1.2826163392   -2.2678131377
H       -1.3986997227    0.5736465797    3.8430975372
H       -0.0406494774   -0.5626432753    3.5459050981
H       -1.7205583083   -1.1178115075    3.3311018349
H       -1.1787164411   -0.7200033698   -1.1008394782
H       -1.0807146863    0.9262747705   -0.4255703189
17   
Generated by ForceBalance from scan.xyz: Frame 21 of 24
C       -0.5655376566   -0.6425975596    0.9611076137
C        1.5976393973   -1.2250726850   -1.2357419622
C       -1.0546908198   -0.2601852076    3.2387948131
C       -0.5860832605   -0.0438190095   -0.4335340623
C        0.8115566530    0.0656389563   -1.0423196829
O       -0.1757754594   -1.7642842515    1.2261452579
O       -1.0441696698    0.2232737836    1.8766047632
F        1.5509135603    0.9574384379   -0.2824297184
F        0.6419384273    0.6825498781   -2.2760646158
H        2.3689724968   -1.3116431687   -0.4698938193
H        0.9433224827   -2.0937750140   -1.1551186024
H        2.0523018197   -1.2188627717   -2.2283422592
H       -1.4687924232    0.5550186285    3.8310602104
H       -0.0386900937   -0.4967796992    3.5620011067
H       -1.6772894736   -1.1540222694    3.3188712526
H       -1.1844919635   -0.6924055404   -1.0783733745
H       -1.0290885645    0.9523888987   -0.4158829772
17   
Generated by ForceBalance from scan.xyz: Frame 22 of 24
C       -0.4752699401   -0.6077753264    0.9321809573
C        1.5710167141   -1.2340389807   -1.3863351952
C       -1.1046969351   -0.2839912298    3.1847030546
C       -0.5600498265   -0.0424413871   -0.4738498936
C        0.8020971643    0.0543288404   -1.1572752262
O        0.0794074857   -1.6482194367    1.2306896713
O       -1.1167385059    0.1828258115    1.8165277747
F        1.5888381942    0.9493821150   -0.4509682590
F        0.5649725326    0.6568105659   -2.3876419778
H        2.1871118830   -1.4672540369   -0.5185895970
H        0.8805762725   -2.0644414205   -1.5461701870
H        2.1853702715   -1.1216559361   -2.2824264928
H       -1.6641396580    0.4614495408    3.7488027626
H       -0.0776227357   -0.3553116844    3.5489184860
H       -1.5824568064   -1.2636780998    3.2552765759
H       -1.1935699209   -0.7048049671   -1.0704015135
H       -1.0096807652    0.9509973960   -0.4588409205
17   
Generated by ForceBalance from scan.xyz: Frame 23 of 24
C       -0.4761657785   -0.6131541196    0.9505598143
C        1.5631849262   -1.2242864232   -1.3993554154
C       -1.0875178705   -0.2547098079    3.2028093907
C       -0.5745440851   -0.0695849975   -0.4631915650
C        0.7825386977    0.0482363833   -1.1544519823
O        0.0821187717   -1.6481464844    1.2613649454
O       -1.1123241219    0.1897871720    1.8274281806
F        1.5650492009    0.9383084248   -0.4346468792
F        0.5409136590    0.6644009750   -2.3753256742
H        1.9776188421   -1.5999048093   -0.4646455212
H        0.9059849390   -1.9891105398   -1.8200123840
H        2.3563503977   -1.0138334711   -2.1205648113
H       -1.6436040290    0.4987516138    3.7595219730
H       -0.0571799456   -0.3180776900    3.5591663743
H       -1.5626555375   -1.2340267408    3.2933655933
H       -1.1986292658   -0.7516712900   -1.0475146876
H       -1.0429773494    0.9152570778   -0.4594731176
17   
Generated by ForceBalance from scan.xyz: Frame 24 of 24
C       -0.5026078378   -0.6725585348    0.9596700144
C        1.5880917212   -1.2118394023   -1.3731040451
C       -1.0182747584   -0.2386585730    3.2220717034
C       -0.5999382521   -0.1441681140   -0.4599427887
C        0.7666018921    0.0314086288   -1.1225759579
O       -0.0003477328   -1.7356522303    1.2725557266
O       -1.0624556192    0.1812089747    1.8395864243
F        1.5055757969    0.9206452321   -0.3556067694
F        0.5431205229    0.6742550286   -2.3313303323
H        1.7856960176   -1.7275215315   -0.4334262002
H        1.0434366432   -1.8862215339   -2.0382567689
H        2.5282455132   -0.9211105745   -1.8476059271
H       -1.5108789866    0.5563131966    3.7808053344
H        0.0178661744   -0.3558815287    3.5465622249
H       -1.5463449318   -1.1865254479    3.3472846761
H       -1.1797046897   -0.8578875440   -1.0516143065
H       -1.1081307117    0.8206548196   -0.4716840780
