23   

C       -4.8396785734   -6.8726049329   -2.0227349452
C        1.2448636801   -4.8178431744    3.1690811203
C       -3.3355728355   -4.8946904544   -1.4716640763
C        1.0687232091   -5.3724290180    1.9412521741
C       -3.7733085808   -6.5056956232    0.1792862810
C       -4.0133634037   -6.1338649713   -1.1177027301
C       -2.5758945630   -4.3762083332   -0.4440670977
C        0.7218922981   -3.4990146093    3.4338613472
C       -0.1368161175   -3.3637157420    1.3069618581
C       -1.8558197225   -3.1092718631   -0.4969829350
C       -0.8855133087   -2.6259284124    0.3053439557
N       -5.5076591344   -7.4764818044   -2.7611979004
N        0.0396733905   -2.8014336678    2.4635908833
N        0.3727724239   -4.6248842711    0.9922012467
O        0.8730784767   -3.0046972080    4.5376469713
S       -2.7159299661   -5.3751128945    1.0130759089
H        1.7676056426   -5.3284514166    3.9653941684
H       -3.4332581756   -4.4289457621   -2.4468893736
H        1.4603193540   -6.3638241657    1.7249671736
H       -4.1877863769   -7.3928462377    0.6445872260
H       -2.1554130879   -2.4462768678   -1.3024933934
H       -0.7001971338   -1.5592325691    0.2909261653
H        0.1892163880   -4.9710074289    0.0576097996
23   

C       -4.5228391718   -7.0162338324   -1.9715293600
C        1.3194466476   -4.8922502249    3.0939550200
C       -3.1738407547   -4.9317808196   -1.4118557403
C        0.9535853613   -5.4573665249    1.9138960004
C       -3.8232514047   -6.3840010928    0.3162270367
C       -3.8674432847   -6.1555131970   -1.0349365627
C       -2.6029852662   -4.2822133003   -0.3396613593
C        0.9604105798   -3.5209865845    3.3654248215
C       -0.1089678633   -3.3515416163    1.3382483626
C       -1.8925396744   -3.0039293597   -0.3854846690
C       -0.8861604128   -2.5637883956    0.3957690864
N       -5.0506536650   -7.7195629424   -2.7349425238
N        0.2481548409   -2.7817646331    2.4487845149
N        0.2332559445   -4.6671916515    1.0195615238
O        1.2787703587   -3.0172857549    4.4286920721
S       -2.9379006359   -5.1323586614    1.1779848568
H        1.8751532706   -5.4329520265    3.8468696824
H       -3.1239187740   -4.5720818354   -2.4345397787
H        1.2188393123   -6.4886877242    1.6924737941
H       -4.2828239510   -7.2360491196    0.8044070106
H       -2.2037520771   -2.3262736813   -1.1742716111
H       -0.6739149852   -1.5019139842    0.4014380693
H       -0.0942610147   -5.0186379352    0.1269503435
23   

C       -4.2282508166   -7.1190921824   -2.0250249159
C        1.2576026124   -5.1056839255    3.0552270882
C       -3.0406647212   -4.9613266818   -1.3832767003
C        0.7177890781   -5.6378418521    1.9279796092
C       -3.9489032412   -6.3233522323    0.3015813261
C       -3.7635196246   -6.1807675486   -1.0497583370
C       -2.6858893365   -4.2274822960   -0.2751960064
C        1.0647142639   -3.7041668521    3.3404108363
C       -0.1811371118   -3.4375711771    1.4265774135
C       -1.9832621180   -2.9375394695   -0.2452337877
C       -0.9595047789   -2.5737040771    0.5508525503
N       -4.5999234630   -7.8857939253   -2.8186999107
N        0.3401527020   -2.9019813406    2.4884070331
N       -0.0083303918   -4.7841049958    1.0995658375
O        1.5394174029   -3.2285372333    4.3573267677
S       -3.2528128269   -4.9926207002    1.2173605439
H        1.8323543457   -5.6950192679    3.7554710251
H       -2.8148813596   -4.6659608071   -2.4030398384
H        0.8551287837   -6.6916762306    1.6964618930
H       -4.4683772495   -7.1577257461    0.7595164493
H       -2.2952023667   -2.2097887933   -0.9878084937
H       -0.7124143241   -1.5208818546    0.6098047835
H       -0.4621101056   -5.1058726034    0.2516919569
23   

C       -3.9333273319   -7.2305889803   -2.0033874965
C        1.2346365961   -5.2063825243    2.9790710787
C       -2.8995899590   -5.0004519707   -1.3428390895
C        0.5453434112   -5.7244235390    1.9296293012
C       -4.0413629206   -6.2664327801    0.2734761482
C       -3.6461048927   -6.2132988135   -1.0389261207
C       -2.7462589441   -4.1799471092   -0.2514413885
C        1.1777569720   -3.7869129316    3.2327933294
C       -0.2236866577   -3.4724446533    1.4362858109
C       -2.0581094473   -2.8783394278   -0.1748922471
C       -1.0065030573   -2.5665569438    0.6048532534
N       -4.1599011650   -8.0617180721   -2.7867229358
N        0.4381401485   -2.9526767560    2.4255023890
N       -0.1925301024   -4.8383588458    1.1471499827
O        1.7857937792   -3.3227791265    4.1818112627
S       -3.5228786989   -4.8554289609    1.1873007563
H        1.8306441234   -5.8201653463    3.6393707331
H       -2.5115169584   -4.7728218945   -2.3308645535
H        0.5780095501   -6.7916297437    1.7221366023
H       -4.6129032603   -7.0812807441    0.7039563113
H       -2.4007797078   -2.1113039290   -0.8623918749
H       -0.7242812305   -1.5233842355    0.6778956102
H       -0.7503042680   -5.1454507405    0.3574543949
23   

C       -3.6704567518   -7.2728033498   -1.9714264053
C        1.2182283454   -5.2202698059    2.9347488945
C       -2.7765390183   -4.9948424775   -1.2708717584
C        0.3847317610   -5.7327637289    1.9928113951
C       -4.1752516606   -6.1849085922    0.1936863059
C       -3.5590997856   -6.1993102314   -1.0318625746
C       -2.8224693223   -4.1126633279   -0.2195892088
C        1.2831626332   -3.7908744179    3.1204926144
C       -0.2784516211   -3.4544718807    1.4642424099
C       -2.1545817800   -2.8016113928   -0.0838936948
C       -1.0762537401   -2.5252193828    0.6711194538
N       -3.7542821563   -8.1499363893   -2.7324737865
N        0.5185464824   -2.9419910548    2.3528355732
N       -0.3744747173   -4.8310924637    1.2495450276
O        2.0217696781   -3.3299606562    3.9736541050
S       -3.8293671528   -4.7176138229    1.1009181525
H        1.8419239853   -5.8456116630    3.5575397782
H       -2.2203878413   -4.8170446727   -2.1864274111
H        0.3241188873   -6.8075225927    1.8370725587
H       -4.8091801037   -6.9827445356    0.5648125511
H       -2.5546605210   -1.9916218890   -0.6858637355
H       -0.7701854163   -1.4888377840    0.7464694153
H       -1.0261697311   -5.1314781581    0.5322866865
23   

C       -3.4694076697   -7.3206296727   -1.9299182044
C        1.2408638589   -5.2510576946    2.8713590215
C       -2.6725533988   -5.0250371743   -1.1718906399
C        0.2715428682   -5.7558732985    2.0649522366
C       -4.3526431128   -6.1228787103    0.0478656348
C       -3.5138595201   -6.2053371837   -1.0345277501
C       -2.8957445726   -4.0950196936   -0.1864710050
C        1.4128733481   -3.8215566419    2.9616120923
C       -0.3093440009   -3.4699520500    1.4755558568
C       -2.2448063262   -2.7825088333    0.0095313721
C       -1.1350841041   -2.5282283785    0.7258710696
N       -3.4280873029   -8.2321212315   -2.6530912774
N        0.6150202378   -2.9659224374    2.2367871403
N       -0.5157094559   -4.8463169844    1.3612049176
O        2.2751364618   -3.3658982353    3.6929396877
S       -4.1521749129   -4.6187341563    0.9388011302
H        1.8960566608   -5.8825526892    3.4543158053
H       -1.9511488253   -4.8957063854   -1.9734648506
H        0.1287425327   -6.8309663843    1.9825483950
H       -5.0645647428   -6.8927440081    0.3248433020
H       -2.7247499618   -1.9339018070   -0.4680836736
H       -0.8142411069   -1.4958373614    0.7957061197
H       -1.2588626325   -5.1411529525    0.7366134342
23   

C       -3.7551957729   -7.7365250997   -0.6902387623
C        1.0851009937   -4.9767516054    3.3214701300
C       -2.5894590470   -5.4736829018   -0.6759292652
C       -0.0744157960   -5.4539375030    2.7991486867
C       -4.7086634524   -5.6847492391    0.3132056615
C       -3.7075293619   -6.3473361349   -0.3504542978
C       -2.7725535376   -4.1859538662   -0.2321593216
C        1.6379126577   -3.7464256554    2.8101498729
C       -0.0988937655   -3.5290469753    1.3150706904
C       -1.8844894846   -3.0202834267   -0.3997262297
C       -0.7333249351   -2.7612427496    0.2483604353
N       -3.7925851510   -8.8688523898   -0.9584491389
N        1.0095394366   -3.0551535332    1.7997714879
N       -0.6738827714   -4.7122463203    1.7825438236
O        2.6752027214   -3.3127101757    3.2812441792
S       -4.3320184296   -3.9852556104    0.5713313171
H        1.6169021072   -5.4859874632    4.1125352271
H       -1.7105590184   -5.8056847812   -1.2212906293
H       -0.5048258302   -6.3809389520    3.1711862457
H       -5.6321549039   -6.1502530787    0.6398471932
H       -2.2359267487   -2.2523594190   -1.0819545927
H       -0.2009530814   -1.8597213717   -0.0302350150
H       -1.5366042441   -5.0030297776    1.3349308465
23   

C       -3.6029597811   -7.7541976705   -0.5877368753
C        1.0941267422   -5.0337797038    3.2812442624
C       -2.5249155558   -5.4493830146   -0.5191816932
C       -0.1517572630   -5.4057297192    2.8879168878
C       -4.7920466584   -5.6783199331    0.0460964837
C       -3.6613818245   -6.3437292721   -0.3538327953
C       -2.8244022789   -4.1413877275   -0.2150606391
C        1.7082849662   -3.8739700160    2.6827077794
C       -0.1377585349   -3.5210706344    1.3537988524
C       -1.9631928950   -2.9534870915   -0.3040592833
C       -0.7985019569   -2.7169289226    0.3317428923
N       -3.5565606598   -8.9034294980   -0.7684621116
N        1.0513443931   -3.1451758893    1.7180349981
N       -0.7755175552   -4.6300934795    1.9118105048
O        2.8246378042   -3.5354292179    3.0364473859
S       -4.5195548825   -3.9509316336    0.2421489506
H        1.6508621414   -5.5764113158    4.0319463109
H       -1.5483433369   -5.7817633083   -0.8602321106
H       -0.6294996915   -6.2782621073    3.3277805459
H       -5.7491896993   -6.1578555280    0.2194231694
H       -2.3546479736   -2.1327328689   -0.8971831535
H       -0.2640464514   -1.8140373310    0.0616927214
H       -1.7003606959   -4.8464005701    1.5552944603
23   

C       -3.4685936275   -7.7663321108   -0.4758516953
C        1.0867937312   -5.0762104891    3.2447447239
C       -2.4823082770   -5.4226054995   -0.3641021240
C       -0.2203481370   -5.3405341915    2.9859121875
C       -4.8085478549   -5.7018739124   -0.2189288860
C       -3.6062945495   -6.3472534760   -0.3543431677
C       -2.8655498282   -4.1085318843   -0.2097524275
C        1.7386185936   -3.9884483188    2.5572149306
C       -0.1899525819   -3.4997131352    1.4005905052
C       -2.0469325253   -2.8938293911   -0.2077348503
C       -0.8758102927   -2.6647782064    0.4223335443
N       -3.3603651831   -8.9222398953   -0.5642139240
N        1.0565233487   -3.2230066901    1.6395251195
N       -0.8672231156   -4.5304073312    2.0536804446
O        2.9104449191   -3.7466477348    2.7901260395
S       -4.6216913030   -3.9569269479   -0.0923766028
H        1.6655200635   -5.6532052256    3.9519711459
H       -1.4518375045   -5.7408076797   -0.4964723078
H       -0.7270369984   -6.1574812249    3.4948029646
H       -5.7684900952   -6.2057492819   -0.1949987471
H       -2.4690143209   -2.0442531316   -0.7356817224
H       -0.3459248258   -1.7559285590    0.1637721662
H       -1.8362243299   -4.6733362311    1.7896701722
23   

C       -3.3752747735   -7.7451785061   -0.3911451777
C        1.0752967665   -5.1311360989    3.2317922965
C       -2.4412403317   -5.3836753447   -0.2239680427
C       -0.2691093121   -5.2749538388    3.0993291640
C       -4.7514783849   -5.6921054998   -0.5022439916
C       -3.5416840185   -6.3240668221   -0.3755234356
C       -2.8520739020   -4.0671543493   -0.2180395087
C        1.7588214920   -4.1201936012    2.4623120537
C       -0.2127951824   -3.4778676705    1.4662565589
C       -2.0786683971   -2.8324699897   -0.1094899704
C       -0.9083155720   -2.6098224394    0.5268110390
N       -3.2461606056   -8.9023752781   -0.3931515189
N        1.0694593215   -3.3118040805    1.5878032714
N       -0.9217870174   -4.4229261213    2.2093281097
O        2.9641697059   -3.9854464285    2.5837070864
S       -4.6012299427   -3.9407000934   -0.4369042067
H        1.6610506188   -5.7493223288    3.8972453692
H       -1.4042165020   -5.6980397804   -0.1472549590
H       -0.7997014704   -6.0323592683    3.6720488745
H       -5.6958706794   -6.2092162328   -0.6305765950
H       -2.5181872597   -1.9635152586   -0.5894539153
H       -0.3789664210   -1.6956643762    0.2871272721
H       -1.9190543065   -4.4818708342    2.0344550506
23   

C       -3.3552944801   -7.7593603704   -0.2896247564
C        1.1120960534   -5.1185315306    3.1724663077
C       -2.4615479542   -5.3848054074   -0.0935134659
C       -0.2449355374   -5.1858673772    3.1733797763
C       -4.6903898749   -5.7274865883   -0.7452416540
C       -3.5206945013   -6.3409581186   -0.3806611626
C       -2.8626177378   -4.0713657039   -0.2335140624
C        1.7741873024   -4.1669439015    2.3135055122
C       -0.2443429011   -3.4402939614    1.4856558840
C       -2.1511503952   -2.8123542944   -0.0390065839
C       -0.9804318030   -2.5647851851    0.5881849028
N       -3.2284604261   -8.9137714528   -0.2049544204
N        1.0504050247   -3.3433312982    1.4822054023
N       -0.9321589656   -4.3185760444    2.3247450485
O        2.9910873161   -4.0977541104    2.3190312317
S       -4.5510091339   -3.9746215262   -0.7499185025
H        1.7238583803   -5.7545130992    3.7965178029
H       -1.4560549937   -5.6954711003    0.1726385753
H       -0.7589019916   -5.8969514547    3.8163842953
H       -5.5997180315   -6.2584511348   -1.0036039537
H       -2.6229700402   -1.9418783182   -0.4842540969
H       -0.4775442712   -1.6337356657    0.3573871045
H       -1.9435897615   -4.3179029866    2.2538993139
23   

C       -4.2477830014   -7.2419909314    1.0210133540
C        1.1405183582   -4.9920599060    3.1332604302
C       -2.8716326808   -5.1600315869    0.5250979608
C        0.8166580992   -5.5764059450    1.9499970307
C       -4.6215176641   -5.7575055239   -0.9213259901
C       -3.9433238090   -6.0964734799    0.2193548147
C       -2.7604361569   -4.1385743421   -0.3980093149
C        0.8368091937   -3.5969846651    3.3424171298
C       -0.1176083616   -3.4461965314    1.2568609658
C       -1.8372076573   -3.0165727477   -0.5262728872
C       -0.7948012423   -2.6493256930    0.2501564303
N       -4.4898831825   -8.1820254551    1.6642939041
N        0.2037425028   -2.8589021749    2.3690016881
N        0.1906273142   -4.7814108594    0.9901366388
O        1.1395269453   -3.0680593040    4.3979679704
S       -3.9854327640   -4.2970496483   -1.6643875111
H        1.6244319800   -5.5340687021    3.9334430786
H       -2.2621451394   -5.2632771340    1.4155802029
H        1.0426394571   -6.6262440443    1.7765870147
H       -5.4560249389   -6.3215150824   -1.3223816521
H       -2.0600322716   -2.3288967898   -1.3361775587
H       -0.4686191265   -1.6181090578    0.1977199068
H       -0.0856484696   -5.1424773496    0.0841954062
23   

C       -4.3456617625   -7.2065978070    1.0165556001
C        1.1492107009   -5.1448872556    3.1447508252
C       -2.9887915372   -5.0920913774    0.6121712844
C        0.6616521582   -5.7019877615    2.0054471159
C       -4.4364275026   -5.8709577137   -1.0634535030
C       -3.9524863805   -6.1010214288    0.1976392757
C       -2.7571932226   -4.1329223614   -0.3532039301
C        0.9868187556   -3.7286309731    3.3672613626
C       -0.1471222647   -3.4997271514    1.3798773068
C       -1.8789630934   -2.9677805115   -0.3733213505
C       -0.8476421005   -2.6432061208    0.4367715884
N       -4.6591721330   -8.1144072085    1.6749726895
N        0.3278743916   -2.9411134413    2.4513854547
N        0.0162316266   -4.8579514897    1.1022745577
O        1.4326700878   -3.2251777274    4.3838332561
S       -3.7406983393   -4.4298929661   -1.7923618400
H        1.6608813543   -5.7246438935    3.8998941969
H       -2.5330541788   -5.0952817664    1.5973911131
H        0.7774350507   -6.7679903794    1.8224544280
H       -5.1661641342   -6.5019209631   -1.5583498108
H       -2.0998818414   -2.2368151714   -1.1449904335
H       -0.5303249277   -1.6077566878    0.4502510516
H       -0.3895962449   -5.1980471303    0.2376028899
23   

C       -4.4319935794   -7.1520062991    1.0106450309
C        1.1812202268   -5.1949262793    3.1099774699
C       -3.0935323135   -5.0179580772    0.6481615753
C        0.5562858006   -5.7427234242    2.0352555786
C       -4.2338300630   -5.9844290911   -1.1616645972
C       -3.9476488929   -6.0969027598    0.1741881420
C       -2.7394096104   -4.1317516525   -0.3474070289
C        1.1245360381   -3.7674214469    3.3108081237
C       -0.1677141514   -3.5057810539    1.4257031584
C       -1.9239268504   -2.9207490960   -0.2930981808
C       -0.8934295161   -2.6200102662    0.5264911410
N       -4.8192844892   -8.0187555751    1.6848332760
N        0.4349526896   -2.9581072705    2.4373225343
N       -0.1178520811   -4.8777291348    1.1742345996
O        1.6893836423   -3.2729593499    4.2711268672
S       -3.4762529814   -4.5745954618   -1.8915427232
H        1.7255085355   -5.7905137654    3.8290849729
H       -2.7913041575   -4.9190439682    1.6869124600
H        0.5891965101   -6.8172353681    1.8693006505
H       -4.8576451371   -6.6818610628   -1.7095639881
H       -2.1653056006   -2.1628207099   -1.0319516573
H       -0.5808562183   -1.5838534239    0.5714338810
H       -0.6299864559   -5.2090724901    0.3639715402
23   

C       -4.5630857732   -7.1271199025    0.9421633237
C        1.2296038966   -5.2057816377    3.0988358992
C       -3.2334060344   -4.9750175438    0.6618855109
C        0.4529744629   -5.7562878913    2.1296716250
C       -4.0184231964   -6.1006297356   -1.2426057170
C       -3.9654645124   -6.1138458605    0.1275248009
C       -2.7324729784   -4.1487683126   -0.3200279454
C        1.2807964714   -3.7706221687    3.2347940114
C       -0.1947942803   -3.5040079999    1.4890505986
C       -1.9857242357   -2.8952032933   -0.1915814842
C       -0.9538577988   -2.6053614509    0.6283814100
N       -5.0421163904   -7.9590969434    1.6009402559
N        0.5483554049   -2.9556723815    2.4025196033
N       -0.2625007430   -4.8861310687    1.3082415054
O        1.9798912991   -3.2736921317    4.1009470537
S       -3.1802286838   -4.7157939510   -1.9321252607
H        1.8172988335   -5.8045561476    3.7800851975
H       -3.1127066564   -4.7922088936    1.7261503490
H        0.4022020792   -6.8366043788    2.0137259306
H       -4.5214423668   -6.8547478386   -1.8377781761
H       -2.2609944102   -2.1130207698   -0.8923530655
H       -0.6471217759   -1.5680373223    0.6876933987
H       -0.8794419247   -5.2165144947    0.5738485517
23   

C       -4.6798751133   -7.1500100861    0.8446481822
C        1.2663941639   -5.1187011705    3.0681853554
C       -3.4030798713   -4.9573501548    0.6419725328
C        0.3648483718   -5.6876658402    2.2263001893
C       -3.7674085725   -6.2602101439   -1.2768235258
C       -3.9759994189   -6.1697542430    0.0757522874
C       -2.7580089119   -4.1824417872   -0.2941928628
C        1.3868850189   -3.6819176889    3.1097948255
C       -0.2599183785   -3.4483571892    1.5185975277
C       -2.1036579184   -2.8780463272   -0.1179319999
C       -1.0712571609   -2.5638417472    0.6896178942
N       -5.2452306113   -7.9539426064    1.4688375423
N        0.5986081384   -2.8833899418    2.3133773014
N       -0.4044182737   -4.8341726677    1.4368409017
O        2.1980876164   -3.1685976130    3.8610856542
S       -2.8668687863   -4.8872698802   -1.9097909743
H        1.9041693487   -5.7037103608    3.7154591738
H       -3.4897978977   -4.6897203507    1.6914213571
H        0.2598616375   -6.7693849692    2.1827841464
H       -4.1192277334   -7.0814147899   -1.8916130003
H       -2.4460540271   -2.0876292016   -0.7787465192
H       -0.7898809932   -1.5191316829    0.7461207134
H       -1.1072074046   -5.1779598481    0.7909864225
23   

C       -4.8042474503   -7.1365314816    0.7140476465
C        1.3262738234   -5.0769547613    3.0225416706
C       -3.5629973988   -4.9164579333    0.6134062142
C        0.3049071745   -5.6369138023    2.3237742759
C       -3.5019916519   -6.3561216205   -1.2406631223
C       -3.9818023760   -6.1840803391    0.0328781455
C       -2.7661642862   -4.1809535933   -0.2308747392
C        1.5244769290   -3.6493573666    2.9641256814
C       -0.2791220563   -3.4063619476    1.5545086685
C       -2.1811597213   -2.8446548457   -0.0123259082
C       -1.1349829466   -2.5214048686    0.7707805541
N       -5.4665775116   -7.9165276126    1.2694075066
N        0.6911152609   -2.8499947621    2.2157455726
N       -0.5052942533   -4.7838483517    1.5762269083
O        2.4442316887   -3.1449080436    3.5850874948
S       -2.5245267997   -4.9953541196   -1.7788380016
H        2.0039251887   -5.6625421392    3.6273500116
H       -3.8600449447   -4.5858753398    1.6046611863
H        0.1394421690   -6.7113793845    2.3575210624
H       -3.7035212834   -7.2284595265   -1.8527389447
H       -2.6077761652   -2.0393161517   -0.6023079150
H       -0.8638798944   -1.4739289213    0.8262357923
H       -1.2924227695   -5.1211763978    1.0323163867
23   

C       -4.9088933258   -7.1294916621    0.5618281930
C        1.3770750408   -5.0743193974    2.9617108906
C       -3.7145291590   -4.8816015735    0.5658232904
C        0.2468211318   -5.6031877577    2.4254914978
C       -3.2487222107   -6.4315804980   -1.1361132783
C       -3.9828303638   -6.1953552101   -0.0015299171
C       -2.7823596848   -4.1728936296   -0.1513889512
C        1.6527954050   -3.6690841163    2.7870256514
C       -0.2889092413   -3.3862539785    1.5837828280
C       -2.2549737479   -2.8167435636    0.1081130942
C       -1.1828331683   -2.4930368062    0.8531899286
N       -5.6559474081   -7.8935022947    1.0241056977
N        0.7837832210   -2.8586787493    2.0926650057
N       -0.5940756038   -4.7417891265    1.7232142932
O        2.6716236946   -3.1943104291    3.2587675361
S       -2.2070311839   -5.0767492211   -1.5553279447
H        2.0859987025   -5.6687571503    3.5202582517
H       -4.2060198370   -4.5044420831    1.4579355442
H        0.0212786759   -6.6600135328    2.5490178483
H       -3.3040037927   -7.3464016068   -1.7160172590
H       -2.7864694374   -1.9977658512   -0.3666341084
H       -0.9117547003   -1.4454601033    0.9056118782
H       -1.4582008343   -5.0565110621    1.2947794817
23   

C       -5.0113601229   -7.1115552644    0.3768115457
C        1.4320353911   -5.0576990054    2.9148859020
C       -3.8395716203   -4.8549817108    0.4941284008
C        0.2198504768   -5.5493001750    2.5494430813
C       -3.0558215811   -6.4847938181   -1.0048856354
C       -3.9943127731   -6.1982201979   -0.0462745630
C       -2.7893796781   -4.1723635583   -0.0686024057
C        1.7610584013   -3.6863023680    2.6100936064
C       -0.2876974648   -3.3639465642    1.6132531930
C       -2.3132658330   -2.8046981986    0.2249111366
C       -1.2142037863   -2.4712279298    0.9249885105
N       -5.8337248298   -7.8576501198    0.7270123294
N        0.8621927666   -2.8701614359    1.9616409871
N       -0.6494590547   -4.6847595567    1.8870811346
O        2.8531060139   -3.2469845804    2.9267934108
S       -1.9526095003   -5.1432088204   -1.2854868883
H        2.1683298568   -5.6576660045    3.4304705836
H       -4.4905182831   -4.4411257400    1.2584265958
H       -0.0465923044   -6.5799177715    2.7727594791
H       -2.9985259941   -7.4282064233   -1.5367056871
H       -2.9371638965   -1.9900283573   -0.1294593856
H       -0.9428624499   -1.4231438932    0.9615603390
H       -1.5699547435   -4.9746125612    1.5739190233
23   

C       -5.8346475754   -6.1549146662    0.4991415128
C        0.9843852173   -5.0639181823    3.3165681888
C       -4.0805507456   -4.3326850754    0.2144114976
C       -0.3496452784   -5.2170733359    3.1122994788
C       -3.5479632867   -6.5467348322   -0.3627922095
C       -4.5253643230   -5.7163561279    0.1236344978
C       -2.7808332314   -4.1613058387   -0.1969907950
C        1.7127558044   -4.0893765765    2.5405217158
C       -0.1990105731   -3.4865834352    1.4126166925
C       -1.9946726664   -2.9152065596   -0.2496634384
C       -0.8463385153   -2.6578933702    0.4031810305
N       -6.8975759410   -6.5124627056    0.8123001622
N        1.0743169658   -3.3128961829    1.6002157487
N       -0.9467706499   -4.4111759361    2.1449252652
O        2.9122857596   -3.9600000401    2.7141699056
S       -2.0566418348   -5.6865934130   -0.7246636353
H        1.5290667224   -5.6482759402    4.0444404632
H       -4.7155371568   -3.5257704784    0.5669616995
H       -0.9151493464   -5.9453607511    3.6892326850
H       -3.6754946654   -7.6129918305   -0.5137243267
H       -2.4191566337   -2.1021617615   -0.8303471074
H       -0.2981474861   -1.7654222729    0.1271817855
H       -1.9331488385   -4.4757530491    1.9170560278
23   

C       -5.8965407010   -6.1721916201    0.1937563364
C        1.1151921357   -5.0131917396    3.2690124840
C       -4.1349359169   -4.3387818612    0.0778744917
C       -0.2400591169   -5.0859533494    3.2117634471
C       -3.4976439529   -6.5741257856   -0.2624694109
C       -4.5473961598   -5.7336158649    0.0065790573
C       -2.7846445017   -4.1673659525   -0.1217583624
C        1.8153124407   -4.1170402217    2.3804582325
C       -0.1642224804   -3.4393985634    1.4274490881
C       -2.0392274859   -2.9018557203   -0.1500222404
C       -0.8660428283   -2.6210437912    0.4493075904
N       -6.9933905794   -6.5291018196    0.3532170996
N        1.1294832737   -3.3389863256    1.4756557133
N       -0.8869427086   -4.2791362364    2.2774314883
O        3.0320542954   -4.0592688378    2.4238851181
S       -1.9748947013   -5.7104997661   -0.4341432493
H        1.6977272201   -5.6052377646    3.9604830364
H       -4.8279658758   -3.5242517960    0.2633141374
H       -0.7838786176   -5.7543106701    3.8755320770
H       -3.5901465344   -7.6497942588   -0.3630625715
H       -2.5170267739   -2.0814066913   -0.6762515619
H       -0.3397322424   -1.7265996324    0.1395765960
H       -1.8935364090   -4.2895578197    2.1549435896
23   

C       -5.9319332190   -6.2207492662   -0.1140178763
C        1.2341014930   -4.8251222097    3.2011563854
C       -4.2153092511   -4.3427267752   -0.0492620077
C       -0.1191464359   -4.8322069172    3.3212636243
C       -3.4827112011   -6.5730236605   -0.1255923519
C       -4.5801529586   -5.7517413107   -0.0963176359
C       -2.8534702361   -4.1378474805   -0.0185599096
C        1.8517380901   -4.0102169410    2.1826181554
C       -0.2031909691   -3.2879075218    1.4496570028
C       -2.1759453275   -2.8410428053   -0.0274044152
C       -0.9928834490   -2.4976805937    0.5197457641
N       -7.0322177144   -6.6020247641   -0.1220309795
N        1.0887860227   -3.2464864173    1.3290366181
N       -0.8468014422   -4.0422385931    2.4326922257
O        3.0651235996   -4.0124532872    2.0673132933
S       -1.9722066231   -5.6728819645   -0.0915884662
H        1.8752619613   -5.4109406155    3.8444129732
H       -4.9483646522   -3.5424898903   -0.0468985381
H       -0.6001902729   -5.4384646874    4.0855010862
H       -3.5337646914   -7.6551939392   -0.1681605843
H       -2.7131881977   -2.0384804834   -0.5229004425
H       -0.5224805394   -1.5829199611    0.1812360547
H       -1.8598020580   -4.0066589489    2.4425028419
23   

C       -5.9315888049   -6.2360045936   -0.4632098876
C        1.3109930058   -4.8468288575    3.1951897641
C       -4.2299689834   -4.3649982741   -0.1762789131
C       -0.0143312092   -4.7351945350    3.4730265828
C       -3.5331786987   -6.5981244865    0.0232639608
C       -4.6017329484   -5.7724582051   -0.2097950867
C       -2.8970837661   -4.1595119234    0.1108217185
C        1.8606734713   -4.1414842691    2.0623128348
C       -0.2077445077   -3.2957072803    1.5286139114
C       -2.2385632864   -2.8584407586    0.1328959242
C       -1.0451988291   -2.5009424778    0.6484871620
N       -7.0150890235   -6.6127553876   -0.6639352845
N        1.0595646472   -3.3653595773    1.2564362716
N       -0.7832857119   -3.9371362015    2.6271064122
O        3.0474185118   -4.2504107883    1.8067708325
S       -2.0452087313   -5.7025507248    0.2971127904
H        1.9794297189   -5.4484054175    3.7946863197
H       -4.9376969293   -3.5653596896   -0.3691310509
H       -0.4429042381   -5.2575208383    4.3253789571
H       -3.5917473160   -7.6805878711    0.0355924229
H       -2.7892567830   -2.0568850834   -0.3491605002
H       -0.5975728777   -1.5782940616    0.3011483840
H       -1.7805880015   -3.8131346058    2.7572176606
23   

C       -5.0528524950   -6.7210334589   -1.8896522792
C        1.3218551007   -4.8191982934    3.2560335676
C       -3.3874579789   -4.8600859352   -1.3969714360
C        1.2891805250   -5.3435568254    2.0029459889
C       -3.6063909096   -6.6414834543    0.1150711124
C       -4.0491038484   -6.1149769031   -1.0693946837
C       -2.4381355974   -4.4809708586   -0.4702372340
C        0.6712035502   -3.5571605269    3.5146891428
C       -0.0333745184   -3.4227601596    1.3320744736
C       -1.7053181007   -3.2237986619   -0.5244066598
C       -0.7606210701   -2.7164126152    0.2939963317
N       -5.8663612360   -7.2169070188   -2.5594268007
N        0.0053785236   -2.8874589276    2.5139427792
N        0.6088519211   -4.6230189426    1.0220009604
O        0.7010099466   -3.0867775997    4.6386800859
S       -2.3713825162   -5.6422063868    0.8672142074
H        1.8227539983   -5.3121657206    4.0771341083
H       -3.6349999915   -4.2811637414   -2.2806973929
H        1.7786226461   -6.2915768378    1.7915103148
H       -3.9745548255   -7.5656776245    0.5457905668
H       -2.0051435002   -2.5605072845   -1.3295386413
H       -0.5913520299   -1.6473678561    0.2684943696
H        0.5359440719   -4.9467570166    0.0646851545
