22   
Generated by ForceBalance from scan.xyz: Frame 1 of 24
C        2.0673138039   -2.1417590275    1.2961955555
C        2.3425786404   -2.7503790421    2.6632276384
C        0.9370543124   -0.0111961418   -0.7189753906
C        4.6380409958    2.4018720395    1.2905228151
C        2.9304221129    1.2730589210    0.0926584270
C        2.3390803676   -0.1194697195   -0.1116852983
N        2.3270306263   -0.7988088955    1.1878249055
O        1.6269121195   -2.8175049805    0.3666122963
O        4.1829405206    1.1642463712    0.7623840815
H        1.4510285599   -3.2899425272    2.9921591191
H        3.1511143224   -3.4810092333    2.5657173516
H        2.6163733755   -2.0137795386    3.4238498939
H        0.2667542733    0.5331359319   -0.0449000864
H        0.5267767272   -1.0061087887   -0.8924653450
H        0.9792667775    0.5220579024   -1.6753701168
H        5.5854939537    2.2059203788    1.7973327839
H        3.9188410596    2.8171083095    2.0120952529
H        4.8040901713    3.1420397253    0.4942006916
H        3.0550806669    1.7691191036   -0.8805746691
H        2.2367004987    1.8788284655    0.6978117820
H        2.9831229985   -0.6831068104   -0.7993077983
H        2.9652200145   -0.4050208943    1.8702379754
22   
Generated by ForceBalance from scan.xyz: Frame 2 of 24
C        3.0935507870   -1.7633130159    1.8976755965
C        2.9366859599   -2.1866848160    3.3497349826
C        0.5563921656   -0.5838701259   -0.5551804191
C        3.9321908776    1.7827186297   -1.8935142597
C        2.7513425729    0.6429884574   -0.1760240244
C        1.9962587157   -0.6859764261   -0.0561730911
N        2.0124666240   -1.1413755000    1.3351645572
O        4.1311393894   -1.9767024505    1.2702220560
O        2.7825921046    1.0261050487   -1.5458616292
H        3.0802359899   -3.2686194300    3.4148871437
H        3.7265921826   -1.7152874937    3.9405545942
H        1.9654695044   -1.9301566977    3.7829881313
H       -0.0221006329    0.1227086320    0.0541906935
H        0.0606806419   -1.5592912948   -0.5210966471
H        0.5467872009   -0.2201325413   -1.5846535366
H        3.8655397062    1.9921014482   -2.9639246104
H        4.8552683713    1.2206857018   -1.6919576779
H        3.9722706960    2.7364084783   -1.3457241943
H        2.2558575369    1.4211276992    0.4277478399
H        3.7673086062    0.4986786456    0.2113942786
H        2.5441478166   -1.4263786485   -0.6452733325
H        1.1944447193   -0.9699391386    1.9040691871
22   
Generated by ForceBalance from scan.xyz: Frame 3 of 24
C        3.1108664957   -1.7140493783    1.8753055649
C        2.9585706357   -2.1833167578    3.3134518028
C        0.5450611684   -0.5901635486   -0.5752414133
C        3.9638144158    1.6957239947   -1.8900456791
C        2.6711608272    0.7318885159   -0.1317367620
C        1.9816339303   -0.6373227339   -0.0600756921
N        2.0048845283   -1.1339135487    1.3170024247
O        4.1654139826   -1.8565848754    1.2554706439
O        2.7085341010    1.1649318618   -1.4889607240
H        3.1596303785   -3.2572716419    3.3530367454
H        3.7141194649   -1.6856949422    3.9272855709
H        1.9694098463   -1.9906933982    3.7391920722
H       -0.0759787680    0.0651161824    0.0494472990
H        0.0982584638   -1.5894905213   -0.5820024697
H        0.5306955263   -0.1914324362   -1.5917197058
H        3.8787456040    1.9459641408   -2.9504616173
H        4.7703980962    0.9612349972   -1.7564847593
H        4.2178377171    2.6072647576   -1.3290077521
H        2.1217438018    1.4661022514    0.4780007898
H        3.6825869557    0.6308761726    0.2765607910
H        2.5721603567   -1.3321967156   -0.6637005563
H        1.1736393899   -1.0197227508    1.8811454617
22   
Generated by ForceBalance from scan.xyz: Frame 4 of 24
C        3.1473811851   -1.6723304342    1.8698359755
C        3.0052261556   -2.1888674700    3.2925871051
C        0.5590210111   -0.6030812036   -0.5820207369
C        3.9904276161    1.5810903232   -1.8581814607
C        2.6109586936    0.8073073352   -0.0691219147
C        1.9887412907   -0.5972353694   -0.0467970854
N        2.0189714582   -1.1335860675    1.3152523252
O        4.2136629921   -1.7438388683    1.2573393478
O        2.6729814130    1.2887049069   -1.4098304953
H        3.2557800666   -3.2530618167    3.3042519548
H        3.7314197003   -1.6742613799    3.9274431810
H        2.0045239894   -2.0545100542    3.7137099136
H       -0.1018117815    0.0001032848    0.0542096962
H        0.1608772800   -1.6216731137   -0.6295105414
H        0.5401211106   -0.1707258249   -1.5847555196
H        3.9097381992    1.8766903100   -2.9072321797
H        4.6478426715    0.7039769533   -1.7809302019
H        4.4359678208    2.4090727626   -1.2879467285
H        1.9941587720    1.4968952092    0.5250767779
H        3.6071934363    0.7590067998    0.3821987550
H        2.6198300020   -1.2460473297   -0.6610126864
H        1.1769882125   -1.0769895872    1.8721299049
22   
Generated by ForceBalance from scan.xyz: Frame 5 of 24
C        3.1655495619   -1.6048644413    1.8427011654
C        3.0365699496   -2.1650591459    3.2499554683
C        0.5614289464   -0.5877713510   -0.6135457000
C        3.9707676640    1.4779612455   -1.8401259044
C        2.5327317012    0.9061973876   -0.0290088958
C        1.9804705558   -0.5291909226   -0.0544030893
N        2.0184015134   -1.1035043236    1.2916424478
O        4.2385154459   -1.6113133045    1.2374839018
O        2.6351768388    1.4295276697   -1.3503967108
H        3.3381748993   -3.2158936730    3.2364317785
H        3.7315436865   -1.6330770210    3.9051263951
H        2.0269583372   -2.0900743999    3.6645076447
H       -0.1386946987   -0.0406290035    0.0312805044
H        0.2149073947   -1.6222044868   -0.7033440259
H        0.5366954727   -0.1213739418   -1.6009570460
H        3.9170778259    1.8313893191   -2.8727692736
H        4.4486025409    0.4887309065   -1.8223970355
H        4.5850350079    2.1759224988   -1.2535764336
H        1.8468368001    1.5537626440    0.5332974526
H        3.5042360343    0.9098922708    0.4765205282
H        2.6502329669   -1.1316605141   -0.6752266558
H        1.1698021794   -1.0980152552    1.8412920888
22   
Generated by ForceBalance from scan.xyz: Frame 6 of 24
C        3.1589231916   -1.5534988492    1.8307035057
C        3.0189629978   -2.1398064014    3.2261342746
C        0.5877536924   -0.5669423357   -0.6666791719
C        3.9056282507    1.3971908327   -1.8437084856
C        2.4733282915    0.9976408402    0.0122913900
C        1.9859509721   -0.4613694022   -0.0632887966
N        2.0112651911   -1.0627048563    1.2707883971
O        4.2403778156   -1.5312991280    1.2413382101
O        2.6109630169    1.5786202044   -1.2792383537
H        3.3440910876   -3.1833532246    3.2005685854
H        3.6909746917   -1.6036953782    3.9016105590
H        2.0011991598   -2.0937566145    3.6246593413
H       -0.1546607150   -0.0675671239   -0.0304930150
H        0.2894623220   -1.6124675612   -0.7928325504
H        0.5706777274   -0.0755776624   -1.6422744718
H        3.8879200939    1.8642700336   -2.8312364305
H        4.1651548923    0.3356185528   -1.9535354730
H        4.6764277018    1.8820806921   -1.2282048836
H        1.7335719138    1.6012673448    0.5523026223
H        3.4208421841    1.0347475093    0.5634783325
H        2.6965549360   -1.0270421207   -0.6722496065
H        1.1548000167   -1.0785777902    1.8079862917
22   
Generated by ForceBalance from scan.xyz: Frame 7 of 24
C        3.1486553904   -1.5884408087    1.8532327191
C        2.9511874735   -2.1650039263    3.2457652278
C        0.7092677814   -0.5705548366   -0.7471633105
C        3.7844224761    1.3496388817   -1.9095229064
C        2.5059510640    1.0352927627    0.0759591461
C        2.0658266101   -0.4356200675   -0.0600682942
N        2.0341791056   -1.0536081607    1.2655113382
O        4.2437650617   -1.6122777031    1.2904735328
O        2.6242911864    1.7112856085   -1.1683817201
H        3.2521148703   -3.2159195339    3.2344283938
H        3.6143486449   -1.6417032622    3.9399247995
H        1.9229278700   -2.0927249416    3.6121942013
H       -0.0828279588   -0.0962099667   -0.1533389102
H        0.4474128880   -1.6223691879   -0.8976335893
H        0.7334462807   -0.0697633936   -1.7180479244
H        3.8380748431    2.0310107377   -2.7617950834
H        3.7357868870    0.3181538756   -2.2838095075
H        4.6934884688    1.4570981566   -1.3011781697
H        1.7512104786    1.5885698380    0.6465516919
H        3.4549992207    1.0708207592    0.6286894439
H        2.8260432514   -0.9798424480   -0.6252267848
H        1.1705857899   -1.0175182364    1.7906100664
22   
Generated by ForceBalance from scan.xyz: Frame 8 of 24
C        3.1647748256   -1.6299767899    1.8242576959
C        2.9326693318   -2.2180938628    3.2065816025
C        0.8162165962   -0.5647751284   -0.8236265718
C        3.6635426957    1.3047973382   -1.9738951665
C        2.5297204513    1.0739272558    0.1149524424
C        2.1391568578   -0.4046266257   -0.0770415247
N        2.0733219843   -1.0522116468    1.2321191794
O        4.2647367325   -1.6822685793    1.2738620053
O        2.6701642176    1.8130706772   -1.0911914490
H        3.2053415132   -3.2764969652    3.1861225031
H        3.6004484722   -1.7212838735    3.9156666167
H        1.9019585435   -2.1220586939    3.5604124221
H       -0.0143181432   -0.1316996244   -0.2516271190
H        0.5960521773   -1.6203849276   -1.0091900118
H        0.8579791181   -0.0390948506   -1.7809893798
H        3.8335276411    2.0740000770   -2.7309478850
H        3.3404284896    0.3828809859   -2.4762941592
H        4.6061334007    1.1041439081   -1.4448772318
H        1.7498007034    1.5895109951    0.6859863641
H        3.4649766043    1.1089772309    0.6929909954
H        2.9385219342   -0.9167716194   -0.6162136358
H        1.2089506885   -0.9892835637    1.7537147241
22   
Generated by ForceBalance from scan.xyz: Frame 9 of 24
C        3.1746630376   -1.6231936245    1.8147506342
C        2.9251754076   -2.2297743867    3.1858670535
C        0.8670820420   -0.5550374196   -0.8572587336
C        3.6104885104    1.2539178798   -2.0022971756
C        2.5285507425    1.1079900723    0.1431617199
C        2.1729506514   -0.3743890180   -0.0831722943
N        2.0890277883   -1.0415940066    1.2148234102
O        4.2820969343   -1.6642668774    1.2790253652
O        2.7785824247    1.8752692633   -1.0308262548
H        3.2076734058   -3.2853778887    3.1576388049
H        3.5767259859   -1.7353619026    3.9115552554
H        1.8880147348   -2.1466792306    3.5237361538
H        0.0162521793   -0.1591238943   -0.2883690635
H        0.6792203969   -1.6117972845   -1.0699086856
H        0.9038730200   -0.0075388408   -1.8025976241
H        3.8595802895    2.0271105074   -2.7329491636
H        3.1033002224    0.4313732580   -2.5237490275
H        4.5401850823    0.8705109132   -1.5578093928
H        1.7048952935    1.6152430628    0.6571237170
H        3.4138960904    1.1364477297    0.7957679269
H        2.9950823088   -0.8631873628   -0.6081428769
H        1.2168666578   -0.9895427334    1.7244855160
22   
Generated by ForceBalance from scan.xyz: Frame 10 of 24
C        2.8349200316   -1.7203826321    1.0367454753
C        2.7519503327   -2.5811964826    2.2864862435
C        0.6447255073    0.2340287981   -0.7556675342
C        4.5117381619    1.2556171571    1.1375265523
C        2.2491839853    1.8099207881    0.3787553103
C        2.0118295372    0.3589735257   -0.0664112584
N        2.1006421916   -0.5661374311    1.0628591272
O        3.5382945698   -2.0400108531    0.0779322619
O        3.5834316957    2.2208009471    0.6530003910
H        2.4130572802   -3.5808015008    2.0019027059
H        3.7561573757   -2.6832540933    2.7069867980
H        2.0832419416   -2.1823026430    3.0549079224
H       -0.1654300596    0.5644465941   -0.0938937219
H        0.4592092012   -0.8078958647   -1.0297497077
H        0.6083456628    0.8423034454   -1.6649307987
H        5.4652533133    1.7827161531    1.2202925074
H        4.6347741798    0.4074665969    0.4558877106
H        4.2304530057    0.8745563655    2.1296488013
H        1.8971795248    2.4820335177   -0.4096778318
H        1.6201829037    1.9973922551    1.2679724452
H        2.7876474807    0.0492129847   -0.7692193656
H        1.5173310354   -0.3807345011    1.8687381396
22   
Generated by ForceBalance from scan.xyz: Frame 11 of 24
C        2.8283792239   -1.7225629049    1.0524161313
C        2.7483434358   -2.5811350875    2.3038107576
C        0.6636527557    0.2301831736   -0.7625787604
C        4.5272370577    1.2348628193    1.1182060089
C        2.2350800688    1.8094543398    0.4030023169
C        2.0183329479    0.3599268275   -0.0495556798
N        2.0975620004   -0.5659050430    1.0791474493
O        3.5249178060   -2.0466431872    0.0901950340
O        3.5375005873    2.2146349609    0.8193776509
H        2.3964265647   -3.5775448661    2.0237173398
H        3.7553663884   -2.6930576370    2.7148787057
H        2.0910215526   -2.1743818053    3.0778670761
H       -0.1599752396    0.5494099291   -0.1124176687
H        0.4922965646   -0.8115236059   -1.0462420222
H        0.6376508395    0.8433716156   -1.6689174066
H        5.4608863119    1.7906449338    1.2345174361
H        4.6553003418    0.4972078775    0.3192757361
H        4.3133502549    0.7032984584    2.0552103882
H        1.9615460221    2.4723394661   -0.4254593081
H        1.5280864044    2.0154719101    1.2248258980
H        2.8036448454    0.0529186843   -0.7422160453
H        1.5213903680   -0.3730334993    1.8884103422
22   
Generated by ForceBalance from scan.xyz: Frame 12 of 24
C        2.7088459185   -1.7958363824    1.0640042398
C        2.6432882755   -2.6373606941    2.3279781231
C        0.7554015169    0.1551165057   -0.7755447347
C        4.5605981168    1.3816665100    1.0109482764
C        2.1940438371    1.8114621379    0.4558913937
C        2.0667414090    0.3548570261   -0.0000559076
N        2.1411585968   -0.5532203845    1.1453647696
O        3.2563637912   -2.2056645270    0.0402627390
O        3.4528312248    2.2739677202    0.9501385947
H        2.1211633370   -3.5708942172    2.1014215105
H        3.6621013234   -2.8967220578    2.6281904906
H        2.1411921414   -2.1409427932    3.1635127596
H       -0.1113264316    0.4434792667   -0.1690900224
H        0.6492061072   -0.8967974208   -1.0519853125
H        0.7469253820    0.7542690464   -1.6917918391
H        5.4025617512    1.9869493598    1.3551602510
H        4.8168445435    0.9578708443    0.0318035112
H        4.3989195887    0.5602182000    1.7178894729
H        1.9299819423    2.4492978030   -0.3970616806
H        1.4439609354    2.0010248595    1.2393005241
H        2.8947717971    0.0816721198   -0.6558274926
H        1.6487399246   -0.2937841423    1.9904154903
22   
Generated by ForceBalance from scan.xyz: Frame 13 of 24
C        2.6210153797   -1.8601912855    1.0583893014
C        2.5855506250   -2.6879388973    2.3325987643
C        0.8362815805    0.1154947218   -0.8034989489
C        4.5802363092    1.4591803146    0.9376641836
C        2.1868198831    1.7878624206    0.5044239044
C        2.1115729246    0.3377328478    0.0228045494
N        2.1658388671   -0.5752285596    1.1676672042
O        3.0468502765   -2.3182549931   -0.0025358321
O        3.4029540912    2.2424154886    1.1015588731
H        1.9704047520   -3.5747502718    2.1578422988
H        3.5994743420   -3.0314297518    2.5548035204
H        2.1943466322   -2.1473736166    3.1993882455
H       -0.0581810003    0.3787565274   -0.2273936594
H        0.7674753728   -0.9354944150   -1.0930575600
H        0.8513027088    0.7227295892   -1.7145186895
H        5.3616720221    1.9851240325    1.4911802775
H        4.8899216594    1.3881937125   -0.1146977759
H        4.4728736885    0.4482686890    1.3448840411
H        1.9736258154    2.4270370359   -0.3640919109
H        1.3912243779    1.9712292680    1.2394599969
H        2.9705793022    0.0976566096   -0.6070321608
H        1.8009967366   -0.2545142347    2.0548641582
22   
Generated by ForceBalance from scan.xyz: Frame 14 of 24
C        2.5553887161   -1.8982891137    1.0739824013
C        2.5929133980   -2.6946495072    2.3681547755
C        0.8535283003    0.0894378293   -0.8124867768
C        4.5599844937    1.4790542024    0.9614517004
C        2.1809661113    1.7564399591    0.5249941839
C        2.1144775084    0.3098032773    0.0336569113
N        2.1511464105   -0.5970751982    1.1843095509
O        2.8701635902   -2.3979807470   -0.0070370540
O        3.3388562571    2.1448338211    1.2645166125
H        1.9239869807   -3.5539798364    2.2706194638
H        3.6050822371   -3.0822351201    2.5118257912
H        2.3025467602   -2.1165367795    3.2501908886
H       -0.0499169013    0.3274054771   -0.2401956152
H        0.8034618801   -0.9548230706   -1.1276130562
H        0.8731540941    0.7187320485   -1.7086714318
H        5.3172168202    1.9416394947    1.5986310115
H        4.8552135697    1.6181613311   -0.0888896602
H        4.5171419375    0.4061409821    1.1793453732
H        2.0872486900    2.4027075518   -0.3610603564
H        1.3257515409    1.9712538218    1.1767052351
H        2.9839951828    0.0781787102   -0.5870999894
H        1.9738797092   -0.2123033570    2.1026980760
22   
Generated by ForceBalance from scan.xyz: Frame 15 of 24
C        2.4793436581   -1.9277665904    1.0481499805
C        2.5825670669   -2.7070914745    2.3493935564
C        0.8719793688    0.1029642655   -0.8369919900
C        4.5739448709    1.5116015672    0.9846609803
C        2.2194711412    1.7385758274    0.5195371043
C        2.1324296846    0.2963768662    0.0141412287
N        2.1504207025   -0.6055146400    1.1687259074
O        2.6708619057   -2.4605263357   -0.0457417265
O        3.3107385589    2.0285733960    1.3904517160
H        1.8686779352   -3.5346140538    2.3196014575
H        3.5837371366   -3.1409256755    2.4202239984
H        2.3890555683   -2.1034035642    3.2407157627
H       -0.0290857005    0.3219570654   -0.2540157023
H        0.8207953849   -0.9289866227   -1.1889150842
H        0.8921198507    0.7648264397   -1.7098543805
H        5.3072934973    1.9120767517    1.6881447195
H        4.8394533504    1.8427361281   -0.0301626762
H        4.6056254543    0.4161346591    1.0202023015
H        2.2596659815    2.3990986228   -0.3605452767
H        1.3196812245    1.9944819669    1.0888568947
H        3.0014221614    0.0599484832   -0.6082958831
H        2.1666761415   -0.1830654599    2.0883800016
22   
Generated by ForceBalance from scan.xyz: Frame 16 of 24
C        2.4051681825   -1.9391386359    1.0794676172
C        2.5487457667   -2.6956243412    2.3906265626
C        0.8457963523    0.0969666634   -0.8187208153
C        4.5650189937    1.6428951117    1.0022743404
C        2.2247537776    1.7268731627    0.5154343527
C        2.1136828274    0.2789940156    0.0223501716
N        2.1283281078   -0.6033309858    1.1904829986
O        2.5168863162   -2.5019389763   -0.0103720227
O        3.2562610144    1.9508689395    1.4719347715
H        1.8099385367   -3.5012242075    2.4123537341
H        3.5388109142   -3.1587354026    2.4227551049
H        2.4159403423   -2.0685245662    3.2767952146
H       -0.0475459819    0.3186686272   -0.2250345777
H        0.7837123488   -0.9316781439   -1.1777260122
H        0.8629754591    0.7661600504   -1.6864200258
H        5.2604541359    1.9791062211    1.7743860446
H        4.7859125868    2.1738886441    0.0648091645
H        4.7031225488    0.5661798605    0.8412012967
H        2.3623881909    2.3841258718   -0.3564745932
H        1.2992338940    2.0214489644    1.0204978416
H        2.9761799211    0.0265332629   -0.6051173021
H        2.2649672290   -0.1579584455    2.0900185294
22   
Generated by ForceBalance from scan.xyz: Frame 17 of 24
C        2.3261967968   -2.0240050216    1.1180472347
C        2.4817686911   -2.7590961907    2.4403300468
C        0.8578945926    0.0263134639   -0.8119792379
C        4.6070992546    1.7830499739    0.9732144638
C        2.2725624271    1.6416691039    0.5013152330
C        2.1289454139    0.1880973299    0.0275750960
N        2.1223594357   -0.6732168680    1.2106255126
O        2.3659752436   -2.6165248154    0.0390335772
O        3.2810652708    1.8267205704    1.4898465186
H        1.7167057622   -3.5377403468    2.4996579747
H        3.4559574544   -3.2558835048    2.4539519465
H        2.3967240098   -2.1100049308    3.3164206975
H       -0.0290292744    0.2782548982   -0.2205604497
H        0.7689937986   -1.0041747209   -1.1589696563
H        0.8923559271    0.6856896598   -1.6868375094
H        5.2768225966    2.0251864939    1.8012453493
H        4.7418063824    2.5241430686    0.1724283725
H        4.8654977701    0.7888990401    0.5845121763
H        2.4538611344    2.2909430780   -0.3670063109
H        1.3407011351    1.9632411348    0.9784616665
H        2.9875513263   -0.0916879323   -0.5956969037
H        2.3486919153   -0.2183421768    2.0875158079
22   
Generated by ForceBalance from scan.xyz: Frame 18 of 24
C        2.2235219647   -2.1005265029    1.1667241102
C        2.3708076880   -2.8269320730    2.4950452975
C        0.8858395145   -0.0182157858   -0.7968228466
C        4.6566650205    1.9588419382    0.9276465719
C        2.3380432654    1.5608861655    0.5158079887
C        2.1529919259    0.1093935597    0.0540204202
N        2.1050204645   -0.7380014839    1.2472047986
O        2.1966928972   -2.7096134580    0.0967611839
O        3.3723918281    1.7072707691    1.4865655418
H        1.5735277859   -3.5702443773    2.5773279659
H        3.3224303701   -3.3661030093    2.4969970663
H        2.3310769518   -2.1647975526    3.3645301365
H        0.0024801997    0.2668437677   -0.2150754137
H        0.7654925095   -1.0471965411   -1.1376487604
H        0.9502462293    0.6346993389   -1.6748526664
H        5.3530078971    2.0586336977    1.7631999784
H        4.6563201770    2.8916350052    0.3464155099
H        4.9927128999    1.1361110514    0.2812293598
H        2.5182987161    2.2056234629   -0.3543008452
H        1.4192292027    1.9020959707    1.0062383895
H        3.0127842002   -0.1992400566   -0.5555781803
H        2.4115884330   -0.2941971385    2.1053920102
22   
Generated by ForceBalance from scan.xyz: Frame 19 of 24
C        2.1698622315   -2.1417291925    1.2110374504
C        2.3108145158   -2.8612389883    2.5439149416
C        0.9134758045   -0.0348968789   -0.7693037957
C        4.6965111278    2.1358503165    0.9308019115
C        2.4221793127    1.5065163508    0.5228859322
C        2.1857928511    0.0594439976    0.0779928580
N        2.1099186273   -0.7740448565    1.2807873712
O        2.0978468299   -2.7597566566    0.1485476305
O        3.4898872253    1.6072197976    1.4663234156
H        1.4954330773   -3.5828817220    2.6396085269
H        3.2482987156   -3.4248105936    2.5413353255
H        2.2970312435   -2.1912662188    3.4081490007
H        0.0414616583    0.2869298026   -0.1895860371
H        0.7569117669   -1.0628315677   -1.0978157026
H        0.9985361971    0.6054327869   -1.6548224068
H        5.4321253673    2.1310926713    1.7383453496
H        4.5562588865    3.1679818128    0.5802033367
H        5.0772668542    1.5248245891    0.0999971542
H        2.6073057265    2.1351279846   -0.3562368869
H        1.5220062612    1.8832801670    1.0242569351
H        3.0379921816   -0.2793898453   -0.5268158122
H        2.4665443376   -0.3427044446    2.1258387957
22   
Generated by ForceBalance from scan.xyz: Frame 20 of 24
C        2.1574855647   -2.1950439181    1.2307193316
C        2.3011397949   -2.9008027744    2.5706483657
C        0.9338092244   -0.0807647824   -0.7596766056
C        4.7135175113    2.2672414625    0.9372422178
C        2.5097894441    1.4328392858    0.4833614904
C        2.2210557406   -0.0109487674    0.0674733854
N        2.1360265854   -0.8252816258    1.2839596179
O        2.0522296029   -2.8242270048    0.1776542864
O        3.6119634220    1.4928252877    1.3914587610
H        1.4837856375   -3.6184638322    2.6773861871
H        3.2369629770   -3.4673615151    2.5704444209
H        2.2940619679   -2.2212325598    3.4274529172
H        0.0801531543    0.2759590056   -0.1731928057
H        0.7423971297   -1.1088479000   -1.0685502830
H        1.0245861255    0.5419601965   -1.6571107692
H        5.4889951146    2.1973600782    1.7035332184
H        4.4361771633    3.3227849240    0.8056752687
H        5.1145433151    1.8822659781   -0.0112514037
H        2.7029408271    2.0311468579   -0.4145212354
H        1.6320094064    1.8568291277    0.9894983513
H        3.0564225751   -0.3814720944   -0.5414716815
H        2.5189207583   -0.3964505659    2.1184780124
22   
Generated by ForceBalance from scan.xyz: Frame 21 of 24
C        2.1270339419   -2.2299075647    1.2369745001
C        2.2764814644   -2.9194868766    2.5845907879
C        0.9297494631   -0.1017509262   -0.7549827897
C        4.7068195328    2.3603409162    0.9549542959
C        2.5900965042    1.3711553138    0.4246524773
C        2.2377738867   -0.0651352274    0.0412615764
N        2.1506768612   -0.8594510504    1.2718762792
O        1.9794155092   -2.8702155871    0.1957801862
O        3.7299445665    1.3836637192    1.2852498414
H        1.4428413450   -3.6137875215    2.7165402738
H        3.1972703257   -3.5101207471    2.5762800843
H        2.3028191699   -2.2274777162    3.4310418697
H        0.1027071702    0.2931610470   -0.1551073298
H        0.6961533783   -1.1272066377   -1.0427210054
H        1.0210753378    0.5033794625   -1.6642878646
H        5.5320285820    2.2369498681    1.6600891255
H        4.3083343714    3.3811375311    1.0474171497
H        5.0851530414    2.2171402806   -0.0673065148
H        2.7864090372    1.9376601154   -0.4941324754
H        1.7454187157    1.8481163183    0.9424777575
H        3.0471633429   -0.4716211059   -0.5786953463
H        2.5639935839   -0.4333479614    2.0930345578
22   
Generated by ForceBalance from scan.xyz: Frame 22 of 24
C        2.0795166096   -2.2617144468    1.2606292412
C        2.2491622837   -2.9328278098    2.6152636913
C        0.9079579172   -0.1230785373   -0.7374955907
C        4.6836119410    2.3957260508    0.9975235798
C        2.6651917371    1.2987898775    0.3588177678
C        2.2411954816   -0.1269017035    0.0168314693
N        2.1594788157   -0.8930172026    1.2659292769
O        1.8718587546   -2.9144932132    0.2376456488
O        3.8402245030    1.2658772006    1.1661510168
H        1.4138549551   -3.6193697780    2.7731848404
H        3.1662338248   -3.5293962733    2.5988553308
H        2.2971320200   -2.2281528191    3.4502548949
H        0.1170299754    0.3168707378   -0.1205483304
H        0.6237446500   -1.1432957299   -0.9970047218
H        0.9953905150    0.4602040804   -1.6612641578
H        5.5501387176    2.2480057833    1.6459535590
H        4.1765343886    3.3287234171    1.2849670969
H        5.0242521878    2.4839265850   -0.0441150576
H        2.8554871095    1.8372250196   -0.5794193187
H        1.8609107122    1.8261054286    0.8951179929
H        3.0127018602   -0.5789312164   -0.6190875114
H        2.6102806908   -0.4664464745    2.0668166209
22   
Generated by ForceBalance from scan.xyz: Frame 23 of 24
C        2.0741998096   -2.2084428914    1.2801786218
C        2.2720960793   -2.8705965575    2.6354871482
C        0.9444268751   -0.0426956831   -0.7069125310
C        4.7192013644    2.4531557626    1.1043569865
C        2.8012035561    1.3077497225    0.3073820756
C        2.3029888293   -0.1003816542   -0.0016686962
N        2.2344273978   -0.8467818545    1.2601167862
O        1.7772425632   -2.8616791736    0.2798922195
O        4.0071555361    1.2254404841    1.0603039537
H        1.4058441943   -3.5023023210    2.8466516211
H        3.1490924271   -3.5226945218    2.5823406638
H        2.4058001892   -2.1592889258    3.4553891712
H        0.1962619648    0.4335229496   -0.0641072747
H        0.6073548371   -1.0507430271   -0.9496247956
H        1.0235740851    0.5325592983   -1.6363621095
H        5.6154886004    2.2841572297    1.7051625226
H        4.1204484212    3.2514620352    1.5679516203
H        5.0159693983    2.7749902495    0.0956492243
H        2.9751243241    1.8358559540   -0.6412386225
H        2.0426094931    1.8706580732    0.8751691313
H        3.0291941694   -0.5928760358   -0.6605700351
H        2.7513791496   -0.4375741329    2.0297056178
22   
Generated by ForceBalance from scan.xyz: Frame 24 of 24
C        2.0575083234   -2.1819716217    1.2918845621
C        2.2850976354   -2.8184104341    2.6548169786
C        0.9298200765   -0.0261179595   -0.7042853577
C        4.6799985194    2.4442322562    1.1868044935
C        2.8680162640    1.2815139418    0.2040049779
C        2.3123499758   -0.1160801133   -0.0504648006
N        2.2681554675   -0.8284813474    1.2311835522
O        1.6951755556   -2.8468429080    0.3212749351
O        4.0985574694    1.1781396646    0.9116828153
H        1.4020229702   -3.4052616998    2.9192220023
H        3.1295577999   -3.5102847179    2.5821468739
H        2.4849117644   -2.0936727453    3.4491368656
H        0.2246198300    0.4916901807   -0.0452176190
H        0.5483986137   -1.0268536384   -0.9085472034
H        0.9926218344    0.5236898420   -1.6501660619
H        5.6061322642    2.2614948701    1.7360137217
H        4.0121689273    3.0676780852    1.8000617444
H        4.9126635807    2.9857327354    0.2583009194
H        3.0188481876    1.7930898162   -0.7580449306
H        2.1464450856    1.8715581503    0.7929112602
H        2.9927627566   -0.6505225355   -0.7254899722
H        2.8349696260   -0.4205666805    1.9656620032
