27   

C        2.4553828186    1.0354744778   -0.4439826048
C        1.4361738234    0.2111557213   -0.9048533098
C        0.6555744828   -4.0794077903   -1.5649006366
C        2.2723272782    1.7757724095    0.7243888523
C        1.5952384577   -2.6943461989   -0.0816760992
C        0.4730904664   -2.8253622324   -0.8622485340
C        0.2584813196    0.1349079933   -0.1547831669
C        0.1322249092    0.9624021452    0.9995373360
C        1.8543550625   -4.5927081178   -1.1623766102
C       -0.7348448637   -1.9778032921   -1.0471709078
C       -2.1359905973   -0.1081298793   -0.2160039795
C       -2.1294403680    0.1577790089    1.2930871154
N        1.1351302560    1.7444919818    1.4266113164
N       -0.8323167033   -0.6680343596   -0.5572315130
O       -1.7234988655   -2.4605738505   -1.6018475186
O        2.4490937639   -3.7545444026   -0.2572674990
O       -1.0467141207    1.0097320828    1.7195326200
Br       2.6003305653   -6.2436530951   -1.7614744739
H        3.3910174536    1.1187904933   -0.9835282768
H        1.5553493781   -0.3494547948   -1.8268918207
H       -0.0354091656   -4.5310111742   -2.2701335274
H        3.0783396570    2.4105999223    1.0740314282
H        1.7940481918   -1.8848953111    0.6105056974
H       -2.9599794724   -0.7860855876   -0.4605664687
H       -2.2968072630    0.8253717793   -0.7651515023
H       -3.0805835686    0.6185980982    1.5769558289
H       -2.0553880811   -0.7969238919    1.8238963254
27   

C        2.4707959355    0.9218621175   -0.4458462865
C        1.4357401749    0.1101317950   -0.8925532551
C        0.7606473787   -3.9607626251   -1.7258866866
C        2.2920823910    1.7082918540    0.6920757411
C        1.4512520578   -2.7821613440    0.0481165459
C        0.4406688394   -2.8329804391   -0.8773501237
C        0.2431926697    0.0948607206   -0.1613523931
C        0.1274357071    0.9616030354    0.9654972341
C        1.9301834499   -4.4874051515   -1.2576198324
C       -0.7867114330   -2.0086418702   -1.0270931651
C       -2.1605282393   -0.1062806092   -0.2191592321
C       -2.1455426877    0.2028748707    1.2810052363
N        1.1455312813    1.7312961353    1.3790731810
N       -0.8657439875   -0.6922207350   -0.5521432377
O       -1.7945065342   -2.5112702930   -1.5253022508
O        2.3750912749   -3.7722796217   -0.1763441660
O       -1.0544023706    1.0584799186    1.6752796919
Br       2.8192088881   -6.0098771902   -1.9873732533
H        3.4156574217    0.9597744758   -0.9742838465
H        1.5557817309   -0.4839224785   -1.7931413979
H        0.1741247093   -4.3291481673   -2.5617098450
H        3.1102342295    2.3338430063    1.0300331555
H        1.5171260205   -2.0710290862    0.8639533363
H       -2.9943354828   -0.7802664056   -0.4400968702
H       -2.3128686691    0.8131418110   -0.7938084414
H       -3.0914086889    0.6798785524    1.5555421771
H       -2.0764625138   -0.7363129539    1.8394787407
27   

C        2.4561805072    0.8721721299   -0.4720269190
C        1.4112036020    0.0649621162   -0.9027743229
C        0.8774859068   -3.7775723210   -1.8779360097
C        2.2859248635    1.6863412985    0.6469471237
C        1.3265356065   -2.8657767764    0.1195690725
C        0.4210063895   -2.8098804713   -0.9054660756
C        0.2150989584    0.0825424148   -0.1762307670
C        0.1115576712    0.9733604341    0.9334602658
C        2.0230022311   -4.3250723608   -1.3740505309
C       -0.8359345832   -2.0217124363   -1.0067229410
C       -2.1943667840   -0.1001499765   -0.2135028479
C       -2.1631636520    0.2367504936    1.2798918167
N        1.1388703500    1.7392884217    1.3312092548
N       -0.9059623418   -0.6978230563   -0.5518668499
O       -1.8608175294   -2.5567581415   -1.4279679523
O        2.3219352089   -3.7701185974   -0.1561020560
O       -1.0668030186    1.0979569461    1.6444492377
Br       3.0580677584   -5.6823212583   -2.2267879454
H        3.4024001085    0.8848493664   -0.9991904211
H        1.5285761220   -0.5478948769   -1.7906908223
H        0.3933458858   -4.0370405658   -2.8139373942
H        3.1116944654    2.3088274930    0.9717669055
H        1.2672104951   -2.2838704716    1.0328342215
H       -3.0340481683   -0.7734031305   -0.4131094742
H       -2.3492663662    0.8094026552   -0.8029418054
H       -3.1050679800    0.7209397687    1.5554257943
H       -2.0893892370   -0.6916377131    1.8555175807
27   

C        2.4627084361    0.7914358541   -0.4617370229
C        1.4058694334   -0.0132509759   -0.8668209265
C        0.9855944374   -3.6260381925   -1.8714593505
C        2.3007990369    1.6523078488    0.6223903557
C        1.1914135193   -3.0201275735    0.2780025072
C        0.3974508850   -2.8307478625   -0.8175879479
C        0.2047082565    0.0534343023   -0.1503864281
C        0.1128589177    0.9886047792    0.9238869713
C        2.0959853702   -4.2146654759   -1.3354855203
C       -0.8776963695   -2.0641840818   -0.8981090442
C       -2.2096079456   -0.0928207073   -0.1824148952
C       -2.1722376543    0.3005086233    1.2965047345
N        1.1511205168    1.7526348454    1.2965603670
N       -0.9303892630   -0.7209766318   -0.5011409031
O       -1.9176971618   -2.6248877223   -1.2379990768
O        2.2465917288   -3.8455754355   -0.0228501859
O       -1.0651060687    1.1616217509    1.6252183227
Br       3.2682411098   -5.3971897389   -2.2671071529
H        3.4118946200    0.7657890122   -0.9829934073
H        1.5206194067   -0.6590319844   -1.7307965410
H        0.6101818889   -3.7530301863   -2.8815670335
H        3.1357645155    2.2728228050    0.9268116709
H        1.0132929300   -2.5834340256    1.2545662949
H       -3.0597624681   -0.7600378019   -0.3558909973
H       -2.3526571548    0.7959296096   -0.8055984747
H       -3.1075012106    0.8069844608    1.5539600256
H       -2.1088796825   -0.6056516863    1.9076108335
27   

C        2.4428306438    0.7496521756   -0.5004389169
C        1.3704701336   -0.0474319083   -0.8787914059
C        1.0158762373   -3.4693618449   -1.8628099339
C        2.3041278127    1.6344175309    0.5672686129
C        1.0684362295   -3.1764234084    0.3602748619
C        0.3463587292   -2.8394739172   -0.7468406872
C        0.1774903456    0.0499615755   -0.1526026233
C        0.1102906880    1.0082984025    0.9033821124
C        2.1017675671   -4.1153359824   -1.3427477862
C       -0.9420306558   -2.0837557990   -0.7849409179
C       -2.2373036234   -0.0581611682   -0.1579373240
C       -2.1820652722    0.3645214314    1.3118860278
N        1.1626102490    1.7656413449    1.2497126705
N       -0.9723067024   -0.7174419345   -0.4717182259
O       -2.0006725493   -2.6673462019   -1.0039991188
O        2.1585645148   -3.9374470955    0.0162961575
O       -1.0575714899    1.2129831594    1.6133404245
Br       3.3582193918   -5.1352400383   -2.3534110704
H        3.3864232367    0.6991728742   -1.0298880872
H        1.4682078091   -0.7097027947   -1.7313276095
H        0.7106947532   -3.4553630678   -2.9038333109
H        3.1510200245    2.2485496791    0.8509626399
H        0.8162912792   -2.8878757478    1.3747102907
H       -3.1026942629   -0.7095361921   -0.3150172553
H       -2.3661361151    0.8207808011   -0.7979377082
H       -3.1062221975    0.8929275991    1.5652397108
H       -2.1298826353   -0.5297928405    1.9411971834
27   

C        2.4467220235    0.6694614083   -0.5528547393
C        1.3514903069   -0.1099768160   -0.9017480053
C        0.9596071840   -3.3840390864   -1.8471741825
C        2.3453640027    1.5704299172    0.5053619763
C        0.9707426780   -3.3846212515    0.3945674313
C        0.2776698084   -2.8912907385   -0.6699280488
C        0.1747621132    0.0199528106   -0.1560149356
C        0.1455605028    0.9947024752    0.8872340141
C        2.0275780616   -4.1073380049   -1.3967704685
C       -1.0047449091   -2.1208092699   -0.6272724720
C       -2.2361219914   -0.0215691127   -0.1321441226
C       -2.1607111886    0.4212617190    1.3303215756
N        1.2187770513    1.7351885541    1.2047997900
N       -0.9958134645   -0.7306150017   -0.4370697644
O       -2.0853172415   -2.7023094449   -0.6733534962
O        2.0585481826   -4.1100710372   -0.0257237478
O       -1.0060950419    1.2356534525    1.6128220407
Br       3.2939138484   -5.0001896062   -2.5100682107
H        3.3796177568    0.5925589611   -1.0977725399
H        1.4198188283   -0.7818227033   -1.7480880953
H        0.6770066436   -3.2304645439   -2.8832311254
H        3.2096592756    2.1701642382    0.7664350706
H        0.6994568178   -3.2311081603    1.4331643610
H       -3.1260763788   -0.6405442231   -0.2827220225
H       -2.3330032095    0.8520953767   -0.7849527143
H       -3.0650443900    0.9853585550    1.5781003176
H       -2.1369276029   -0.4645737223    1.9732010654
27   

C        2.2295980811    1.6178061597   -0.1011739810
C        1.5630595062    0.4427692899    0.2211676073
C        1.0574150450   -1.6817703845   -2.3086451600
C        1.5022165855    2.7393203142   -0.4958805794
C        2.0106590930   -2.8991593359   -0.6836494761
C        0.8692632937   -2.2134426087   -0.9767355599
C        0.1679052435    0.4178383569    0.1172381983
C       -0.5005298296    1.6214039139   -0.2593759016
C        2.2991070002   -2.0855396872   -2.7099077994
C       -0.3122911924   -2.0128148807   -0.0843297102
C       -1.9218553499   -0.4375983508    0.9627598247
C       -2.6213519223    0.4840395330   -0.0393808253
N        0.1676620357    2.7441477478   -0.5663902162
N       -0.5973709535   -0.7361869046    0.4238401017
O       -1.1123461569   -2.9198301643    0.1307817775
O        2.9004405920   -2.8312185849   -1.7272801849
O       -1.8802390610    1.6904777468   -0.3077766751
Br       3.0970175785   -1.6663962044   -4.3913815839
H        3.3095780482    1.6777643926   -0.0450852147
H        2.1243720302   -0.4206054165    0.5566190489
H        0.3608966793   -1.0762161756   -2.8789962122
H        2.0372903551    3.6479660109   -0.7467265577
H        2.1962973369   -3.4203305168    0.2489893809
H       -1.8244457336    0.0639789762    1.9310538317
H       -2.5278575185   -1.3354313372    1.1189739216
H       -2.7725806576   -0.0565513208   -0.9794552380
H       -3.6082992137    0.7506862156    0.3506968750
27   

C        2.1255368643    1.7006399022   -0.3828438170
C        1.5004572706    0.4992597637   -0.0754063170
C        0.8019617119   -1.4135028475   -2.5609690829
C        1.3583255999    2.8445095304   -0.5953167910
C        1.7751605004   -2.9532407808   -1.2477093795
C        0.6989997579   -2.1155184366   -1.2998871418
C        0.1023875802    0.4721740179   -0.0090634756
C       -0.6035711925    1.6969637194   -0.2054034909
C        1.9370010702   -1.8766898678   -3.1636981380
C       -0.3403489719   -1.9698123172   -0.2406036901
C       -1.8805176407   -0.4675211503    1.0028060811
C       -2.6844570655    0.5289538657    0.1637447977
N        0.0251378231    2.8449660789   -0.5025038013
N       -0.6197977143   -0.7079389693    0.3052402204
O       -1.0294220677   -2.9255795242    0.1109736875
O        2.5490052356   -2.8181570385   -2.3743691840
O       -1.9782819121    1.7606283261   -0.0800276699
Br       2.5921226401   -1.2935090768   -4.8579110676
H        3.2044556876    1.7632992527   -0.4543875685
H        2.0972253490   -0.3844175239    0.1176706437
H        0.1240980056   -0.6625249531   -2.9532203399
H        1.8611373287    3.7739700059   -0.8364618013
H        1.9936952108   -3.6289032013   -0.4280354808
H       -1.6824879403   -0.0509207184    1.9956909611
H       -2.4680985416   -1.3807349238    1.1389955545
H       -2.9359358989    0.0686276770   -0.7973023750
H       -3.6237773357    0.7520777894    0.6788036174
27   

C        2.0441040151    2.2287212154    0.3905134877
C        1.5983644257    0.9177656794    0.4964161331
C        1.8320883356   -0.8315498851   -2.0802173180
C        1.1402041698    3.2431736252    0.0803236600
C        2.6322404356   -2.5340160297   -0.8506429574
C        1.5436619145   -1.7172730717   -0.9719578377
C        0.2434180757    0.6530120027    0.2642435668
C       -0.6195691620    1.7553965483   -0.0117945488
C        3.0779394547   -1.1719612644   -2.5255883726
C        0.3290972189   -1.8118124319   -0.1172267022
C       -1.6970925314   -0.6923876570    0.7848740555
C       -2.4842156863    0.2286035947   -0.1513270108
N       -0.1624984288    3.0135060147   -0.1106767248
N       -0.2995616153   -0.6536080635    0.3628409201
O       -0.1856667723   -2.9017984157    0.1307515879
O        3.5868247012   -2.2084002486   -1.7833273613
O       -1.9802938112    1.5778666356   -0.1734013064
Br       3.9909121267   -0.3257781805   -3.9713354548
H        3.0862082684    2.4758596525    0.5519795408
H        2.2942796740    0.1304938764    0.7635111504
H        1.1965343893   -0.0484965477   -2.4808116466
H        1.5042184685    4.2608902715   -0.0009760195
H        2.7306524304   -3.3293677653   -0.1197712867
H       -1.7836444665   -0.3432104361    1.8188825746
H       -2.1219339076   -1.6999394292    0.7370474688
H       -2.4498182647   -0.1780068687   -1.1673035721
H       -3.5323828408    0.2441310023    0.1625694051
27   

C        2.2537873271    1.7084124346    0.2916322419
C        1.6037117784    0.5103339288    0.5576425095
C        1.9320015699   -1.6973119063   -1.5429536498
C        1.5600567788    2.7495968645   -0.3229049123
C        2.0959533606   -3.4443754315   -0.1382302824
C        1.3037925951   -2.3655411756   -0.4213422423
C        0.2636939244    0.3803072812    0.1750453905
C       -0.3817459062    1.5084724170   -0.4130421835
C        3.0648699062   -2.4070315438   -1.8245755950
C        0.0222769917   -2.1031460243    0.2842891723
C       -1.9054058810   -0.5787985954    0.6413449592
C       -2.4288049184    0.2352965097   -0.5455443349
N        0.2708208164    2.6545119026   -0.6626041785
N       -0.4791846338   -0.8010647053    0.4226122667
O       -0.6524201854   -3.0356222783    0.7230644259
O        3.1874723033   -3.4752235131   -0.9718833676
O       -1.7247531021    1.4776327894   -0.7365840749
Br       4.3047225954   -1.9807779047   -3.2105780227
H        3.2934677949    1.8480264774    0.5613070671
H        2.1315085144   -0.2942936906    1.0579981521
H        1.5827881157   -0.8130522959   -2.0662154432
H        2.0822028227    3.6774116981   -0.5263347834
H        1.8903578598   -4.1782520501    0.6337306747
H       -2.0579425646   -0.0275360687    1.5748727227
H       -2.4684029690   -1.5150077439    0.7096393719
H       -2.3408694618   -0.3636007744   -1.4578463492
H       -3.4912527939    0.4470870858   -0.3912458977
27   

C        2.1031028266    2.0861271474    0.5782535970
C        1.5632075868    0.8196942692    0.7616229331
C        2.1751921651   -1.2498507615   -1.3795642005
C        1.3254279862    3.0932764359    0.0087387289
C        2.2635820606   -3.2101070061   -0.2842429381
C        1.5226408873   -2.0611816056   -0.3701565069
C        0.2482014287    0.5897546511    0.3419368102
C       -0.4910229633    1.6864549461   -0.1924395304
C        3.2730278289   -1.9535943537   -1.7867316998
C        0.2394416862   -1.9101261312    0.3632556101
C       -1.8281351142   -0.5860190669    0.7240798131
C       -2.4134265680    0.2438385478   -0.4227440146
N        0.0562068609    2.9000891414   -0.3632679458
N       -0.3861400556   -0.6649763584    0.5134229284
O       -0.3231616892   -2.8980220499    0.8392607729
O        3.3509029358   -3.1506350712   -1.1216288939
O       -1.8221588140    1.5526199108   -0.5381853487
Br       4.5177955408   -1.3671719056   -3.1084198918
H        3.1203805584    2.3051341654    0.8788303802
H        2.1539290704    0.0380452724    1.2274934374
H        1.8620971249   -0.2837599086   -1.7615822897
H        1.7619138909    4.0756452479   -0.1301337921
H        2.0245602128   -4.0574141487    0.3497717567
H       -2.0392344636   -0.1061959994    1.6852600936
H       -2.3014777803   -1.5730923406    0.7292473251
H       -2.2656953375   -0.2929953167   -1.3654048940
H       -3.4917034602    0.3512603451   -0.2700794061
27   

C        2.3531184149    1.8426221150   -0.4807371937
C        1.5398080747    0.7876043438   -0.8747802088
C        2.1596111961   -1.9237385080    0.3494649012
C        1.9273803756    2.7035217603    0.5304164043
C        1.3887264879   -3.6127286648   -0.9143624988
C        1.0961087892   -2.3214185667   -0.5555801647
C        0.3182641151    0.6101942185   -0.2170945492
C       -0.0622531190    1.5630002842    0.7732017489
C        3.0235707687   -2.9796546966    0.4178038335
C       -0.2114801005   -1.7240833468   -0.9375628832
C       -1.9872415094   -0.0761541034   -0.4077231312
C       -2.1673515766    0.4071094231    1.0352444784
N        0.7448951829    2.5708311083    1.1396088105
N       -0.5799816517   -0.4220760078   -0.5751628904
O       -1.0283310265   -2.3917337384   -1.5756158390
O        2.5769948808   -4.0177626924   -0.3576506541
O       -1.3013519850    1.5056653995    1.3826823397
Br       4.6141479404   -3.0228768388    1.4707874808
H        3.3129544907    2.0110810680   -0.9535104651
H        1.8500189191    0.1254613666   -1.6766496376
H        2.2607242859   -0.9971990542    0.9036061330
H        2.5746384108    3.5199540526    0.8293428390
H        0.7671742008   -4.2411870309   -1.5435811468
H       -2.6478098289   -0.9308154014   -0.5858678195
H       -2.2634534048    0.7163713655   -1.1108302007
H       -3.2080434907    0.7126457140    1.1807298608
H       -1.9696069752   -0.4249510098    1.7187378191
27   

C        2.3858195020    1.7335514177   -0.4490004938
C        1.5510820962    0.6908065460   -0.8295786022
C        2.0362173526   -2.0038150385    0.4923027462
C        1.9642110981    2.6356614294    0.5266474510
C        1.4925105914   -3.5225807487   -1.0722985548
C        1.0552101383   -2.3484953684   -0.5185140411
C        0.3094930444    0.5670878535   -0.1959819705
C       -0.0610093895    1.5574817054    0.7614377042
C        3.0002996647   -2.9701125077    0.4365746715
C       -0.2666874435   -1.7698734242   -0.8720753403
C       -2.0125849922   -0.0739500514   -0.3882964797
C       -2.1911351755    0.4548667199    1.0381974462
N        0.7667317133    2.5532560394    1.1147538731
N       -0.6113483647   -0.4523333726   -0.5410348499
O       -1.1103521121   -2.4572747123   -1.4506326085
O        2.6918414894   -3.9026718121   -0.5207890487
O       -1.3090160897    1.5492098921    1.3545418928
Br       4.5520732098   -3.0298731560    1.5450075624
H        3.3596368735    1.8605579706   -0.9058513515
H        1.8619546615    0.0002019465   -1.6063505513
H        2.0186838334   -1.1623527803    1.1770937312
H        2.6280922776    3.4426237561    0.8146171952
H        0.9641720582   -4.0840153450   -1.8356362217
H       -2.6900971592   -0.9196644084   -0.5436800649
H       -2.2708980895    0.7026494439   -1.1155017159
H       -3.2271783564    0.7818483093    1.1694536899
H       -2.0098321302   -0.3590904104    1.7475782200
27   

C        2.4770248442    1.3495072070   -0.3451795684
C        1.5544821434    0.3943657528   -0.7518332923
C        1.7760651388   -2.3533269002    0.5886890790
C        2.1350144628    2.2595594337    0.6537232393
C        1.3228314152   -3.6176222767   -1.2136926912
C        0.8356822240   -2.5612609668   -0.4937184315
C        0.3051342087    0.3641652666   -0.1216188410
C        0.0231662810    1.3566902158    0.8635722225
C        2.7669901064   -3.2779053249    0.4165447628
C       -0.4657813573   -1.9123995073   -0.8005690969
C       -2.0640139786   -0.0754763188   -0.3122514673
C       -2.1892915251    0.4273911781    1.1288688037
N        0.9343496762    2.2670839517    1.2410112980
N       -0.7000717114   -0.5662622396   -0.4858900013
O       -1.3866784194   -2.5618310757   -1.2979353571
O        2.5124532559   -4.0561427520   -0.6846909059
O       -1.2186397117    1.4378503451    1.4640916918
Br       4.2916034394   -3.4686095207    1.5475244442
H        3.4591846388    1.4016391959   -0.7988273949
H        1.8063446541   -0.3001776399   -1.5458862240
H        1.7164823470   -1.6180715124    1.3846272041
H        2.8669868292    2.9971745466    0.9619457781
H        0.8365790166   -4.0538001046   -2.0797617830
H       -2.8134033708   -0.8540906491   -0.4863061393
H       -2.2591010575    0.7402808898   -1.0158935633
H       -3.1941612787    0.8341528773    1.2780044951
H       -2.0701013347   -0.4173437733    1.8151056268
27   

C        2.4310778887    1.6116981125   -0.2711801024
C        1.6075308682    0.5555639184   -0.6382925209
C        1.8285915701   -2.0477893158    1.0786222262
C        1.9481889052    2.5993148612    0.5853594572
C        1.8319544537   -3.2759625070   -0.8033629504
C        1.0768531548   -2.3677677302   -0.1165150068
C        0.3109260750    0.5063583571   -0.1124751359
C       -0.1146533678    1.5780029114    0.7282630561
C        2.9838364496   -2.7735787204    1.0077097944
C       -0.2577527185   -1.8825736840   -0.5610110395
C       -2.0035779628   -0.1198918908   -0.4282800037
C       -2.2777143623    0.5261589333    0.9324870164
N        0.7025671271    2.5865758387    1.0695650327
N       -0.6013832034   -0.5277711810   -0.4448083299
O       -1.1085647162   -2.6669856154   -0.9798521902
O        3.0074377172   -3.5281149691   -0.1386866604
O       -1.4052064345    1.6359782889    1.2183847151
Br       4.3760310159   -2.7425687096    2.3117655116
H        3.4443628696    1.6825914252   -0.6471546978
H        1.9720314100   -0.1992295267   -1.3258833479
H        1.5438063823   -1.3662715042    1.8736060364
H        2.6040754553    3.4160307313    0.8640156595
H        1.5447194769   -3.7347113857   -1.7433023736
H       -2.6871511955   -0.9631366132   -0.5683705013
H       -2.1917663760    0.5988151768   -1.2324091545
H       -3.3155997788    0.8718128070    0.9600642419
H       -2.1596995218   -0.2273529543    1.7179741557
27   

C        2.4601215773    1.2195928417    0.3527316995
C        1.5814549743    0.2290565397   -0.0660094420
C        0.9740306595   -2.1128333109    2.0480344201
C        1.9641508717    2.3729595780    0.9576823054
C        1.4097770378   -3.4085873868    0.2666026006
C        0.5313179284   -2.4659790496    0.7164593656
C        0.2116987293    0.4149198111    0.1552202513
C       -0.2128042410    1.6412879279    0.7492205890
C        2.0894791678   -2.8631995914    2.2906209423
C       -0.6277457944   -1.9230713458   -0.0486464584
C       -2.0528133095    0.0370103188   -0.5983768289
C       -2.5051475741    0.9013301447    0.5813076385
N        0.6577825491    2.5826234322    1.1459791633
N       -0.7581959825   -0.5400590556   -0.2451616347
O       -1.5308834224   -2.6584041054   -0.4430041028
O        2.3746617336   -3.6611586428    1.2108737169
O       -1.5532503821    1.9252629367    0.9285791096
Br       3.1180587385   -2.8068998755    3.8963903880
H        3.5283458749    1.1112606005    0.2103538062
H        1.9635970068   -0.6555364549   -0.5617608547
H        0.5226925027   -1.3920789409    2.7219313421
H        2.6630988695    3.1357943911    1.2808267775
H        1.3578495953   -3.8889079237   -0.7043437214
H       -2.8129860825   -0.7240316312   -0.8001460210
H       -1.9528416725    0.6510824933   -1.4992169751
H       -3.4608944539    1.3723021030    0.3320623851
H       -2.6701747047    0.2605386500    1.4536090462
27   

C        2.4985262384    1.2141325606   -0.1369709390
C        1.5601066460    0.2813820544   -0.5591915750
C        1.2565156426   -2.4342140788    1.3591093348
C        2.1150229048    2.2382528757    0.7272320048
C        1.5458415046   -3.2071001642   -0.7267317654
C        0.6610800771   -2.5118927374    0.0432518535
C        0.2499578847    0.3904054125   -0.0802140063
C       -0.0656905247    1.4905614165    0.7725129102
C        2.4548443464   -3.0845279674    1.2757162567
C       -0.6336252736   -1.9108334344   -0.3984702757
C       -2.1039881309    0.0879149462   -0.5042474241
C       -2.3591092827    0.7335833317    0.8599498757
N        0.8605877535    2.3783477046    1.1663579435
N       -0.7747482603   -0.5157579743   -0.4544549436
O       -1.6230648122   -2.6072845595   -0.6105624752
O        2.6515458989   -3.5640751131    0.0050481262
O       -1.3558811469    1.7032462304    1.2208001222
Br       3.6917767660   -3.2903285615    2.7135385838
H        3.5263160958    1.1607839524   -0.4744596489
H        1.8491146687   -0.4977953762   -1.2537625124
H        0.8451129983   -1.9511161645    2.2391686247
H        2.8597849574    2.9567008717    1.0497616373
H        1.4023567763   -3.4395491281   -1.7761498243
H       -2.8923424768   -0.6405257124   -0.7178358592
H       -2.1378595290    0.8471665794   -1.2923210128
H       -3.3383996756    1.2215397247    0.8455283894
H       -2.3903546454   -0.0474856293    1.6266415718
27   

C        2.3745405228    1.0109837914    0.2932971645
C        1.5201022579   -0.0440466255    0.5859218552
C        1.8595277065   -3.4575364138    0.5845994204
C        1.8980859053    2.1094856172   -0.4195325209
C        1.3593169734   -2.8847797976   -1.5242594599
C        0.8600787442   -2.8361563108   -0.2572634838
C        0.1987256355    0.0208054133    0.1304593121
C       -0.2162170038    1.2003200397   -0.5594123156
C        2.8944134266   -3.8007163535   -0.2387031461
C       -0.5006478667   -2.3680094688    0.1542464646
C       -2.1186494527   -0.5197469484    0.5206287159
C       -2.4471960359    0.2864786516   -0.7374059461
N        0.6301491316    2.2059750232   -0.8301224699
N       -0.7480347979   -1.0055656463    0.3810477815
O       -1.4402620728   -3.1560445216    0.2176174318
O        2.6120819579   -3.4475750595   -1.5334301269
O       -1.5258716889    1.3701001080   -0.9678553584
Br       4.5024167290   -4.6604543370    0.3228999570
H        3.4075695482    0.9959956570    0.6185205512
H        1.8814594209   -0.8792978092    1.1725354665
H        1.8004658664   -3.6359507945    1.6530290983
H        2.5779582355    2.9239334705   -0.6415576362
H        0.8382250760   -2.5324635579   -2.4075388017
H       -2.1966408604    0.1182517423    1.4070314301
H       -2.8454283418   -1.3296311088    0.6376889166
H       -2.4353716740   -0.3809223240   -1.6051618923
H       -3.4595452813    0.6916548367   -0.6457585734
27   

C        2.3687752708    1.0427195532    0.2520650370
C        1.5212405732   -0.0109542465    0.5681042057
C        1.8504499402   -3.5731715310    0.5831883785
C        1.8828075874    2.1265280470   -0.4767681097
C        1.3704276319   -2.7278819763   -1.4382702664
C        0.8732864465   -2.8208125590   -0.1714222059
C        0.1958004793    0.0410486602    0.1202233199
C       -0.2282259333    1.2051816855   -0.5890485687
C        2.8700356323   -3.8526219318   -0.2824266088
C       -0.4637155455   -2.3542933068    0.3054128386
C       -2.1228121601   -0.5166592719    0.5161069399
C       -2.4479778641    0.2669682331   -0.7575874537
N        0.6122521783    2.2092870238   -0.8827675423
N       -0.7436097169   -0.9838992086    0.4028393903
O       -1.3606336980   -3.1623726954    0.5332638816
O        2.6006005508   -3.3323595069   -1.5228628138
O       -1.5400422585    1.3598202735   -0.9952797709
Br       4.4426438779   -4.8390151593    0.1583059583
H        3.4037064596    1.0381201461    0.5716399102
H        1.8909294008   -0.8366784915    1.1651399803
H        1.7840770858   -3.8780965993    1.6222618327
H        2.5574984732    2.9402890806   -0.7164585562
H        0.8640289118   -2.2469984961   -2.2678649514
H       -2.2240479477    0.1311195790    1.3929576898
H       -2.8381555183   -1.3373312860    0.6285704881
H       -2.4166876449   -0.4125675352   -1.6153742408
H       -3.4670343753    0.6588527650   -0.6839556978
27   

C        2.3504928190    1.1526898358    0.2408930283
C        1.5497059121    0.0675381591    0.5721074712
C        1.9275662983   -3.6864746065    0.5320977142
C        1.8159619151    2.2072282093   -0.4972598378
C        1.5425922255   -2.5238128568   -1.3466547309
C        0.9999725157   -2.7914229945   -0.1217265165
C        0.2211755943    0.0600450653    0.1299892890
C       -0.2551098464    1.1969543655   -0.5894761490
C        2.9632024713   -3.8715292310   -0.3396415734
C       -0.3251580783   -2.3569610362    0.4030609338
C       -2.0706963401   -0.5945381132    0.5425621249
C       -2.4320639532    0.1612841478   -0.7386319120
N        0.5414184278    2.2315765167   -0.8988560831
N       -0.6718578466   -0.9992099177    0.4327484871
O       -1.1619095309   -3.1917576508    0.7413747121
O        2.7521986110   -3.1571527028   -1.4916284311
O       -1.5741591059    1.2908642086   -0.9903391183
Br       4.4839177201   -4.9777921460   -0.0170346522
H        3.3859637488    1.1955553445    0.5559864270
H        1.9558015068   -0.7378495357    1.1746772484
H        1.8163519040   -4.1426625826    1.5103116725
H        2.4545242185    3.0462040671   -0.7487266935
H        1.0817987841   -1.9004553941   -2.1050743228
H       -2.2022014540    0.0554024555    1.4137575069
H       -2.7465406574   -1.4474769906    0.6598897126
H       -2.3717994002   -0.5249505233   -1.5895379605
H       -3.4675709122    0.5079508459   -0.6674477232
27   

C        2.3344178281    1.2252010766    0.2748563715
C        1.5513138321    0.1335931503    0.6273414522
C        1.8482184800   -3.8537835990    0.5124743549
C        1.7909999969    2.2428173084   -0.5081604857
C        1.6851612884   -2.3900706727   -1.1768883568
C        1.0395456683   -2.7889220987   -0.0376400848
C        0.2328212095    0.0834159782    0.1605449999
C       -0.2560543011    1.1850541516   -0.6030563388
C        2.9186066408   -4.0010950816   -0.3232468856
C       -0.2665460633   -2.3354370951    0.5099079826
C       -2.0475911557   -0.6058191652    0.5667269901
C       -2.4096560225    0.0991267473   -0.7434865664
N        0.5239050736    2.2255743251   -0.9335129920
N       -0.6401244382   -0.9848210337    0.4825406649
O       -1.0741326823   -3.1634821626    0.9297254437
O        2.8435008146   -3.1042713440   -1.3580381553
O       -1.5703096728    1.2356546725   -1.0270104211
Br       4.3159355938   -5.2813375040   -0.1016661960
H        3.3625349693    1.3021132512    0.6072007539
H        1.9603972385   -0.6462924204    1.2615298149
H        1.6357561547   -4.4389167267    1.4014587959
H        2.4157350111    3.0869436512   -0.7765792799
H        1.3309058556   -1.6207894930   -1.8543079130
H       -2.2012698480    0.0698658909    1.4144006760
H       -2.7064933223   -1.4688881236    0.7050658382
H       -2.3279481882   -0.6149349373   -1.5693994677
H       -3.4522556004    0.4279666418   -0.6945716374
27   

C        2.3344660719    1.2817473893    0.2625788226
C        1.5652387464    0.1839082787    0.6270333101
C        1.7292146329   -4.0124524032    0.3376083545
C        1.7828682388    2.2761324060   -0.5450166051
C        1.8085125264   -2.3033146436   -1.1065353859
C        1.0554591213   -2.7994676703   -0.0735383783
C        0.2541695234    0.1045597744    0.1455078306
C       -0.2466560319    1.1851871328   -0.6392520394
C        2.8277054095   -4.1441736837   -0.4626467931
C       -0.2168325830   -2.3180848574    0.5247686698
C       -2.0132276915   -0.6062095473    0.5644060759
C       -2.3880851765    0.0707701778   -0.7575167081
N        0.5202474773    2.2313481561   -0.9818900992
N       -0.6026181021   -0.9713376170    0.4776630992
O       -0.9953176843   -3.1315269204    1.0235448904
O        2.8995901061   -3.1004394838   -1.3480483677
O       -1.5597065614    1.2085041767   -1.0696818854
Br       4.0819758007   -5.5796586495   -0.3788815705
H        3.3576785740    1.3819291523    0.6038223137
H        1.9768828805   -0.5808137436    1.2782769617
H        1.4121377831   -4.6962949918    1.1187221159
H        2.3968098399    3.1248863037   -0.8235742342
H        1.5770365390   -1.4106678814   -1.6768339661
H       -2.1694681509    0.0831283724    1.4005693140
H       -2.6614574014   -1.4742090665    0.7215066999
H       -2.3052121115   -0.6588830348   -1.5695980057
H       -3.4331875183    0.3916933090   -0.7091942306
27   

C        2.2824901124    1.3631234784    0.3155437432
C        1.5319666738    0.2526154497    0.6820776228
C        1.5774795358   -4.1314625270    0.1297293331
C        1.7298284840    2.3230640129   -0.5329430639
C        1.9465048221   -2.2315432402   -0.9905979282
C        1.0577642164   -2.8005211823   -0.1117688077
C        0.2418569808    0.1258117498    0.1580364107
C       -0.2667037384    1.1764943885   -0.6607229604
C        2.7202827257   -4.2544549227   -0.6060511301
C       -0.1921616792   -2.3076855345    0.5259105968
C       -2.0096798385   -0.6207796381    0.5624736263
C       -2.3875095485    0.0192461588   -0.7775925382
N        0.4822549436    2.2348514508   -1.0053229469
N       -0.5935656480   -0.9649742396    0.4867834602
O       -0.9485438457   -3.1192320802    1.0621617301
O        2.9670799551   -3.0972375402   -1.2954419019
O       -1.5707430649    1.1580465958   -1.1188203616
Br       3.8192904616   -5.8126677787   -0.6780433674
H        3.2914993991    1.4999604197    0.6851908659
H        1.9398662621   -0.4887140289    1.3623054197
H        1.1357413525   -4.8914085999    0.7669958847
H        2.3293866986    3.1811487108   -0.8142431665
H        1.8636331247   -1.2421318125   -1.4240843111
H       -2.1788322838    0.0858711972    1.3815597694
H       -2.6450077085   -1.4946034482    0.7389035823
H       -2.2945469391   -0.7302093110   -1.5703001033
H       -3.4363213459    0.3293916490   -0.7401082963
27   

C        2.2414956301    1.4649281878    0.3595591504
C        1.5114968480    0.3469694792    0.7458453037
C        1.4452967516   -4.2049473117   -0.0257065296
C        1.6970221144    2.3642541892   -0.5585282848
C        2.1135462997   -2.2182404607   -0.7984640626
C        1.0918125494   -2.7991277640   -0.0861505554
C        0.2548190534    0.1496389232    0.1674398941
C       -0.2544200484    1.1464401731   -0.7150063844
C        2.6254471940   -4.3545670823   -0.6930355778
C       -0.1399917539   -2.2859837211    0.5757855766
C       -1.9817561539   -0.6289264639    0.5558204140
C       -2.3494309389   -0.0613490002   -0.8200534518
N        0.4744139727    2.2126820168   -1.0779355498
N       -0.5590611216   -0.9494034182    0.5140375937
O       -0.8783715200   -3.0868508506    1.1523681256
O        3.0528555585   -3.1464949884   -1.1727001491
O       -1.5424877513    1.0692656375   -1.2113610466
Br       3.5535943264   -6.0047272458   -0.9311790383
H        3.2276814886    1.6543452696    0.7657569472
H        1.9088664029   -0.3492507263    1.4779819423
H        0.8766866935   -4.9931568394    0.4584382626
H        2.2807843925    3.2279146884   -0.8555730112
H        2.1910274280   -1.1772857484   -1.0815365620
H       -2.1743252892    0.1136011440    1.3371939740
H       -2.6039707770   -1.5044272902    0.7672816028
H       -2.2371827951   -0.8488942588   -1.5722288928
H       -3.4024985583    0.2363502805   -0.8110865160
