26   
Generated by ForceBalance from scan.xyz: Frame 1 of 24
C        6.1071494700   -0.0542643655    0.2702270661
C        5.4455327386    1.1477611477    0.4018431017
C        4.0073044888   -0.5372391227    0.3435835293
C        0.6355128268   -1.1941634035   -1.1364781838
C        2.6616159928   -2.6183616364    0.9781953423
C        2.0100793425   -1.4474359825    1.6827596556
C        2.7030690361   -1.2486601253    0.3436197514
C        0.2393956954   -1.0439099603   -2.5989337336
C        2.9997480306    1.7782141163    0.5654563961
N        5.2047728249   -1.0947617745    0.2318826891
N        4.1015154259    0.8324282776    0.4542097750
N        1.9647522632   -0.9672479931   -0.8808284676
O       -0.1935552721   -1.4919462136   -0.2776991036
H        7.1738039552   -0.2263966952    0.2055995152
H        5.7947290525    2.1690713977    0.4672538187
H        3.6000796464   -3.0138609060    1.3503481747
H        1.9905220560   -3.3370493028    0.5194362961
H        0.9291145354   -1.4158265099    1.6969268881
H        2.5200158743   -1.0261873463    2.5448196332
H        0.9787297581   -0.5092491308   -3.2024463224
H       -0.7168814583   -0.5193748110   -2.6484757236
H        0.0932149731   -2.0407381486   -3.0273367264
H        2.7214028442    2.1762000469   -0.4155436213
H        3.2918908987    2.6039827225    1.2183792415
H        2.1333001543    1.2758904519    0.9956086470
H        2.5636725428   -0.8971120536   -1.6948603619
26   
Generated by ForceBalance from scan.xyz: Frame 2 of 24
C        6.1015414956    0.0097384867    0.3611296733
C        5.4056156422    1.1970142070    0.4386019481
C        4.0128355844   -0.5249625550    0.3754574634
C        0.6316935977   -0.9890936315   -1.0835022902
C        2.7229048338   -2.6596210749    0.9361690998
C        2.0177213516   -1.5393495188    1.6633203861
C        2.7243613511   -1.2639761799    0.3475577808
C        0.2144399779   -1.0062679440   -2.5480047443
C        2.9377189134    1.7639550557    0.4981386311
N        5.2269118814   -1.0548061646    0.3201464387
N        4.0690294192    0.8476808045    0.4550395087
N        1.9909429740   -0.9994094767   -0.8809179568
O       -0.2067807600   -0.9508838717   -0.1841920778
H        7.1737946311   -0.1361476428    0.3365018286
H        5.7266243007    2.2283809632    0.4889663532
H        3.6686546673   -3.0313944239    1.3141615168
H        2.0964369913   -3.3875062504    0.4298557371
H        0.9362014695   -1.5243390587    1.6579047040
H        2.4984649822   -1.1309319697    2.5476418241
H        1.0272459914   -0.7724998925   -3.2417661843
H       -0.5981413258   -0.2903393165   -2.6872362719
H       -0.1756243529   -2.0003501905   -2.7889954003
H        2.6912325320    2.1308740842   -0.5032193018
H        3.1789951716    2.6121243805    1.1431700980
H        2.0666149092    1.2482518705    0.9028934393
H        2.5531452120   -1.1586893089   -1.7091909461
26   
Generated by ForceBalance from scan.xyz: Frame 3 of 24
C        6.0907297003    0.0200849077    0.4473065870
C        5.3639711163    1.1911973664    0.4664908513
C        4.0173377165   -0.5648010845    0.3781770521
C        0.6716425241   -0.8494102396   -1.0654993500
C        2.7822489122   -2.7462985530    0.8657606817
C        2.0181588275   -1.6732500591    1.5986923219
C        2.7474924345   -1.3331146578    0.3130206894
C        0.1540769692   -0.9939011463   -2.4895521175
C        2.8816579232    1.6975834115    0.4024022196
N        5.2444405520   -1.0667375290    0.3901068502
N        4.0366276522    0.8094187091    0.4313811904
N        2.0164128133   -1.0910259013   -0.9179834930
O       -0.0738069621   -0.5199248058   -0.1437001893
H        7.1661807848   -0.0997534788    0.4740172141
H        5.6579384332    2.2310345477    0.5069507828
H        3.7320188663   -3.0895835576    1.2601050755
H        2.2026198595   -3.4847288767    0.3201579589
H        0.9365743118   -1.6827387372    1.5664377825
H        2.4553819044   -1.2703704425    2.5073182827
H        0.9439013971   -0.9914670750   -3.2464402513
H       -0.5457393881   -0.1808553945   -2.6920368916
H       -0.3992313857   -1.9354599826   -2.5674668107
H        2.6824644078    2.0462936816   -0.6159754479
H        3.0684481118    2.5596850830    1.0471247529
H        2.0000466652    1.1680264783    0.7650823815
H        2.5007490371   -1.4247483600   -1.7434631103
26   
Generated by ForceBalance from scan.xyz: Frame 4 of 24
C        6.1742397736    0.1019181143    0.4428335120
C        5.4233148983    1.2576326706    0.4498783131
C        4.1124055976   -0.5249677568    0.3711064748
C        0.8383627807   -0.7178746283   -1.0665576247
C        2.9412981185   -2.7310416975    0.8970725928
C        2.1214942790   -1.6696586618    1.5831936113
C        2.8670028054   -1.3346528801    0.3062231674
C        0.2439675254   -0.8936456267   -2.4557565723
C        2.9376039603    1.7234793865    0.3769946061
N        5.3503644304   -1.0015036523    0.3919298385
N        4.1040985082    0.8496496975    0.4119751585
N        2.1250582966   -1.1734309471   -0.9279095623
O        0.1958097937   -0.1961656176   -0.1549684208
H        7.2518491382    0.0041394977    0.4740183359
H        5.6952632979    2.3037367046    0.4831792153
H        3.8949392193   -3.0246465387    1.3206561855
H        2.4050042434   -3.5069370277    0.3592571170
H        1.0414206218   -1.7164840793    1.5252026385
H        2.5156470789   -1.2279299550    2.4930700491
H        0.9826154625   -1.1434019675   -3.2229003734
H       -0.2716153673    0.0274857338   -2.7352029284
H       -0.5035232293   -1.6923102262   -2.4176401171
H        2.7854201059    2.1266730750   -0.6295756355
H        3.0808513751    2.5519013656    1.0753537847
H        2.0456822547    1.1657800479    0.6634481918
H        2.5547254298   -1.6022562973   -1.7387326701
26   
Generated by ForceBalance from scan.xyz: Frame 5 of 24
C        6.1386713056    0.0271584908    0.1340521919
C        5.4148267987    1.1754107306    0.3746657828
C        4.0832771501   -0.5924355277    0.3457063281
C        0.9440872705   -0.7767450563   -1.1443197826
C        2.9128938180   -2.7238512086    1.1348262890
C        2.0671702382   -1.5906730149    1.6560839436
C        2.8439719957   -1.4158253510    0.3691499540
C        0.3557975747   -1.0278113905   -2.5236902359
C        2.9770477608    1.6512765769    0.8210719540
N        5.3020271013   -1.0663005346    0.1164460233
N        4.1000238136    0.7738104946    0.5049283424
N        2.1101852055   -1.4429485933   -0.8781224575
O        0.3872732608   -0.0296323403   -0.3375000628
H        7.2049473446   -0.0708700033   -0.0252991374
H        5.7036224953    2.2134616908    0.4669244643
H        3.8550840260   -2.9505252720    1.6208429038
H        2.3994942197   -3.5711379138    0.6906890331
H        0.9893489382   -1.6566065058    1.5714632019
H        2.4250766785   -1.0358954529    2.5176478495
H        0.9877605446   -1.6434359835   -3.1698874797
H        0.1772436080   -0.0643855265   -3.0075494384
H       -0.6137056173   -1.5198889076   -2.4043578484
H        2.9974591020    2.5242379870    0.1631191701
H        3.0390060371    1.9885480564    1.8610995120
H        2.0367504772    1.1222102119    0.6665343891
H        2.5303667563   -1.9846597115   -1.6230414120
26   
Generated by ForceBalance from scan.xyz: Frame 6 of 24
C        5.8671495180   -1.0239177803   -0.0748388519
C        5.5019512038    0.2494538420   -0.4569916903
C        3.7495990576   -0.8648613401    0.3073517749
C        0.8363983275   -1.2017804090   -1.3200248138
C        2.1008812049   -1.7531442871    2.0601912296
C        1.5732078984   -0.3966177540    1.6681133645
C        2.3483655930   -1.2189394600    0.6631604465
C        0.2353785540   -2.0734181199   -2.4102588546
C        3.3365173794    1.5426897634   -0.4221279167
N        4.7714616414   -1.7086465182    0.3983062255
N        4.1450516327    0.3434524045   -0.2181676330
N        1.5909576910   -1.8639755255   -0.3881529647
O        0.6320907767    0.0128221915   -1.2845441257
H        6.8487693498   -1.4787392257   -0.1139427039
H        6.0650310766    1.0783319505   -0.8633721884
H        2.9626335085   -1.8137867807    2.7154048240
H        1.3877994438   -2.5668090966    2.1503558042
H        0.5115239463   -0.2812038111    1.4839615624
H        2.0652739483    0.4822492450    2.0716873036
H        0.4350458311   -3.1409049053   -2.2828238412
H        0.6348782430   -1.7490280521   -3.3753086570
H       -0.8452096537   -1.9110105024   -2.4309522524
H        2.2935439777    1.2623067535   -0.5673722921
H        3.6873881892    2.0606010825   -1.3177773673
H        3.4273392871    2.2178533942    0.4358080100
H        1.8320267234   -2.8302313593   -0.5723992301
26   
Generated by ForceBalance from scan.xyz: Frame 7 of 24
C        5.4207870304   -1.1318058578   -0.2687282305
C        5.0890248549    0.1867115953   -0.4977671118
C        3.3446357060   -0.9271050810    0.2846279144
C        0.5786799155   -1.2561086726   -1.3311314082
C        1.7818395026   -1.7988477806    2.1324212601
C        1.2461321727   -0.4389446378    1.7603245734
C        1.9648650573   -1.2744647750    0.7236983429
C       -0.0030371902   -2.1344346516   -2.4254812713
C        2.9912350703    1.5522323964   -0.2025324688
N        4.3311474776   -1.8151486230    0.2178065385
N        3.7583439774    0.3107308452   -0.1497461159
N        1.1393961822   -1.9270600545   -0.2727628876
O        0.5245025891   -0.0278471670   -1.3928922274
H        6.3749478836   -1.6187322231   -0.4253462071
H        5.6594599970    1.0290517761   -0.8639916907
H        2.6725877530   -1.8602130823    2.7475919833
H        1.0683326907   -2.6064924714    2.2646884956
H        0.1767647293   -0.3201074489    1.6269039120
H        1.7611520528    0.4353330313    2.1437068857
H       -0.0659872342   -3.1911214530   -2.1515487861
H        0.6228560295   -2.0382605261   -3.3181300926
H       -0.9994160967   -1.7660975029   -2.6793314894
H        1.9447992317    1.3225221800   -0.3978341309
H        3.3724553558    2.1666883761   -1.0209583738
H        3.0925964375    2.1099510183    0.7348905211
H        1.3346854351   -2.9124884102   -0.4087113747
26   
Generated by ForceBalance from scan.xyz: Frame 8 of 24
C        5.3858028690   -1.1377289678   -0.3630603968
C        5.0490413256    0.1903201273   -0.5173764958
C        3.3318484719   -0.9562555316    0.2774095432
C        0.7577429611   -1.4007081453   -1.3847459708
C        1.8374529943   -1.8466881701    2.1785527255
C        1.2823078449   -0.4898029186    1.8221338758
C        1.9745613950   -1.3271180505    0.7654841962
C        0.2399069333   -2.3486624878   -2.4520577521
C        2.9650929909    1.5402827860   -0.1009916842
N        4.3135604335   -1.8409139019    0.1328138383
N        3.7334521157    0.2996795075   -0.1127082450
N        1.1167885396   -1.9957183572   -0.1968292531
O        0.8370684349   -0.1879500864   -1.5706691559
H        6.3321449892   -1.6176713714   -0.5779979069
H        5.6053778271    1.0471954510   -0.8712100195
H        2.7472074251   -1.9008728416    2.7659223359
H        1.1338906776   -2.6584229388    2.3383872199
H        0.2077360356   -0.3818788252    1.7224987104
H        1.8013598738    0.3865069331    2.1951097848
H       -0.2018736064   -3.2584115474   -2.0352488898
H        1.0741112771   -2.6363293969   -3.1013067121
H       -0.4995850888   -1.8272502660   -3.0615068442
H        1.9204665884    1.3165501900   -0.3080500769
H        3.3420980007    2.1935539198   -0.8904804074
H        3.0676489593    2.0526908177    0.8617060482
H        1.2458443004   -3.0013976341   -0.2363569071
26   
Generated by ForceBalance from scan.xyz: Frame 9 of 24
C        5.3487117101   -1.1161735671   -0.4459436016
C        5.0306799474    0.2223694836   -0.5369747512
C        3.3139184205   -0.9294530287    0.2478813449
C        0.8732510128   -1.4002285098   -1.4457118603
C        1.8735486920   -1.8611869638    2.1689220586
C        1.3517804716   -0.4722526787    1.8912117471
C        1.9689372119   -1.2936879656    0.7728697396
C        0.3096154618   -2.3851536447   -2.4546952814
C        2.9659910995    1.5775648614   -0.0512557191
N        4.2773852693   -1.8227152667    0.0470693945
N        3.7276254272    0.3352217389   -0.0965239115
N        1.0441018240   -1.9018057912   -0.1731670877
O        1.1421682019   -0.2389865199   -1.7433136178
H        6.2821091342   -1.6011485499   -0.7020962265
H        5.5915191101    1.0837375994   -0.8722494554
H        2.8051649486   -1.9714270003    2.7123504144
H        1.1475834765   -2.6523906332    2.3343717772
H        0.2776323320   -0.3268228585    1.8455995896
H        1.9172782017    0.3689853747    2.2777267078
H       -0.3077259348   -3.1607133815   -1.9917752265
H        1.1428068920   -2.8717504386   -2.9736517198
H       -0.2791823761   -1.8396566461   -3.1933564215
H        1.9195567744    1.3632616651   -0.2572567791
H        3.3381045929    2.2463738014   -0.8296804678
H        3.0749232169    2.0688284355    0.9216535789
H        1.0237484913   -2.9149364783   -0.1188147995
26   
Generated by ForceBalance from scan.xyz: Frame 10 of 24
C        5.3328796815   -1.0816060744   -0.4389119135
C        5.0089117064    0.2565670128   -0.5147914979
C        3.2913474286   -0.9146620341    0.2356724695
C        0.9533171069   -1.4162336428   -1.5185051839
C        1.8699971417   -1.9165359410    2.1268991605
C        1.3977395946   -0.4930903301    1.9456112855
C        1.9478447141   -1.2775171314    0.7633334145
C        0.2989612079   -2.4153286137   -2.4576869677
C        2.9201107445    1.5844310229   -0.0517546695
N        4.2603677625   -1.8005245837    0.0340998007
N        3.7031948703    0.3567469341   -0.0814222901
N        0.9670380315   -1.7893440210   -0.1903385586
O        1.4159591164   -0.3511962960   -1.9175526541
H        6.2710322160   -1.5584337476   -0.6927580464
H        5.5674908865    1.1246184330   -0.8363197553
H        2.8118591012   -2.0972980152    2.6322996347
H        1.1156298748   -2.6847511403    2.2765838390
H        0.3289363967   -0.3049577094    1.9449877880
H        2.0088549169    0.3017332593    2.3610830763
H       -0.4607506515   -3.0291232280   -1.9643627202
H        1.0725722081   -3.0797212118   -2.8581519973
H       -0.1514805041   -1.8757888622   -3.2918361448
H        1.8820165558    1.3537128302   -0.2819716205
H        3.2958011040    2.2616033831   -0.8209425120
H        2.9942240525    2.0757594423    0.9243085551
H        0.7533930415   -2.7703210245   -0.0453116008
26   
Generated by ForceBalance from scan.xyz: Frame 11 of 24
C        5.3644418880   -1.0250023550   -0.3361452163
C        5.0000052394    0.2991434618   -0.4610689197
C        3.2910866026   -0.9120394171    0.2415518588
C        1.0175648569   -1.4595061447   -1.5905760115
C        1.8693612032   -2.0153797275    2.0589075732
C        1.4367043312   -0.5674236222    1.9900976772
C        1.9414663691   -1.2836862927    0.7440313870
C        0.1954017188   -2.4133719818   -2.4434525191
C        2.8412353463    1.5560070318   -0.1181346483
N        4.2955165931   -1.7690390497    0.1068645223
N        3.6756913190    0.3647238647   -0.0832668741
N        0.9256511407   -1.6796453378   -0.2323660129
O        1.6854666129   -0.5568420878   -2.0860679691
H        6.3280035812   -1.4757366860   -0.5365872084
H        5.5424666936    1.1769370993   -0.7837671821
H        2.8139975160   -2.2626173815    2.5296013600
H        1.0945068064   -2.7700485354    2.1720312698
H        0.3736617859   -0.3498833391    2.0285514034
H        2.0793797909    0.1789347201    2.4470478271
H       -0.6809421166   -2.8086033026   -1.9204331338
H        0.8294507891   -3.2562015296   -2.7396762415
H       -0.1235211145   -1.8935836083   -3.3478436034
H        1.8287132075    1.2796263251   -0.4071446721
H        3.2320544529    2.2421731309   -0.8714858477
H        2.8299582669    2.0591425913    0.8546780485
H        0.4747204374   -2.5559718321    0.0040626241
26   
Generated by ForceBalance from scan.xyz: Frame 12 of 24
C        5.3023041942   -0.8710497529   -0.0070575860
C        4.8471865949    0.3994849091   -0.2880461226
C        3.1799655869   -0.9001509160    0.3544150575
C        0.9733596858   -1.4932356539   -1.6140835937
C        1.7491296329   -2.2110499984    1.9977841954
C        1.2913502415   -0.7694768419    2.0936896684
C        1.8220260454   -1.3279343060    0.7786615607
C       -0.1465596924   -2.1428657430   -2.4168392341
C        2.5570858026    1.4509345463   -0.3316007447
N        4.2580428392   -1.6698412808    0.4009758706
N        3.4921196537    0.3797248949   -0.0310954036
N        0.8244784833   -1.5906084024   -0.2530255592
O        1.9108129976   -0.9282082457   -2.1714379883
H        6.3155955500   -1.2471970779   -0.0655773548
H        5.3466202174    1.2919319552   -0.6390488140
H        2.6926071698   -2.4952355684    2.4490254673
H        0.9878175000   -2.9871799287    2.0063245618
H        0.2237490269   -0.5741279667    2.1549527913
H        1.9178817122   -0.0672537399    2.6354642878
H       -1.0423546139   -2.3669190890   -1.8296052094
H        0.2316370133   -3.0758621832   -2.8465385677
H       -0.4133480024   -1.4812116941   -3.2432926483
H        2.2650295767    1.4100090237   -1.3839187137
H        3.0207032916    2.4144264516   -0.1053822022
H        1.6650812014    1.3377460996    0.2867857183
H        0.0448498463   -2.1545129499    0.0602271055
26   
Generated by ForceBalance from scan.xyz: Frame 13 of 24
C        4.2194329264    1.7095484951    0.7039365136
C        4.9590651486    1.0882854206   -0.2796621862
C        3.2281067713   -0.1599383506    0.2939774242
C        0.9739238573   -0.5277233084   -1.6262490131
C        2.8619360044   -2.6649927560    0.7678820824
C        2.0275370505   -1.8758402030    1.7524994215
C        2.2851782820   -1.3067081963    0.3821962308
C       -0.4680744982   -0.3460345078   -2.0766305418
C        4.6704923943   -1.0252786542   -1.6076617451
N        3.1496311239    0.9210465652    1.0599027688
N        4.3283572966   -0.1131105889   -0.5268990041
N        1.1279641281   -1.3208013969   -0.5114874702
O        1.9094646335   -0.0127188697   -2.2318989530
H        4.4051415884    2.6643634640    1.1790420172
H        5.8489765320    1.3831445172   -0.8184339590
H        3.9309854018   -2.7309706554    0.9467218417
H        2.4118574137   -3.5359046847    0.3007469792
H        1.0241073368   -2.2358948109    1.9678695656
H        2.5179034949   -1.3835664671    2.5843990354
H       -1.1221390641   -1.1689530090   -1.7724014403
H       -0.4884578088   -0.2472277690   -3.1628605542
H       -0.8562709294    0.5823583942   -1.6438439525
H        4.3088485885   -0.6296824552   -2.5589652224
H        4.1933224865   -1.9892034104   -1.4350551722
H        5.7546063232   -1.1650776183   -1.6382349674
H        0.2600131034   -1.5323418024   -0.0337944339
26   
Generated by ForceBalance from scan.xyz: Frame 14 of 24
C        4.1670322641    2.0693460182    0.7305479624
C        4.9565171085    1.4736675087   -0.2303160711
C        3.3258952994    0.1137860622    0.3838048231
C        1.0292858999   -0.3669328347   -1.4293542055
C        3.0938648007   -2.4442178573    0.6855437128
C        2.3614601837   -1.7799983688    1.8276985159
C        2.4452978758   -1.0809755071    0.4942709611
C       -0.4003988772    0.0348440723   -1.7503968425
C        4.8882206782   -0.7378088688   -1.4326266890
N        3.1596251131    1.2136431021    1.1098240040
N        4.4141762485    0.2239700430   -0.4469223304
N        1.1860316411   -1.0580535492   -0.2454739970
O        1.9655770226   -0.1085439819   -2.1804208896
H        4.2721332299    3.0546586271    1.1665022210
H        5.8265897731    1.8156971414   -0.7733505181
H        4.1768397607   -2.4929962607    0.7364988117
H        2.6142603083   -3.2810836650    0.1881889569
H        1.3973627041   -2.1902044304    2.1173097483
H        2.9355671210   -1.3473636481    2.6391446291
H       -1.1387176821   -0.6558242488   -1.3316940398
H       -0.5200060610    0.0864529536   -2.8332446360
H       -0.5881013405    1.0318020625   -1.3365489213
H        4.0390596121   -1.2832938498   -1.8391913302
H        5.6110213146   -1.4317625006   -0.9904121553
H        5.3678025906   -0.1975148443   -2.2508114744
H        0.3751878054   -1.0050148793    0.3618338280
26   
Generated by ForceBalance from scan.xyz: Frame 15 of 24
C        4.1207193492    2.0717202819    0.7541116903
C        4.9067879645    1.4978099181   -0.2225643531
C        3.3003067181    0.1088136293    0.3947605756
C        0.9898237423   -0.4788102824   -1.4425591508
C        3.0280035529   -2.4693896006    0.5834980615
C        2.3785124839   -1.8461951254    1.7952706023
C        2.4135226226   -1.0833189145    0.4929975178
C       -0.3961320278    0.0334611529   -1.7928584495
C        4.8825737246   -0.7116207563   -1.4272339626
N        3.1267886643    1.2006685499    1.1325660471
N        4.3761117161    0.2442653091   -0.4499047402
N        1.1194716680   -0.9893538066   -0.1683160745
O        1.9203542230   -0.4508576557   -2.2439891658
H        4.2186883744    3.0530430761    1.2006948711
H        5.7685195296    1.8555351735   -0.7687938543
H        4.1098088943   -2.5495442525    0.5721572692
H        2.4987521083   -3.2650153324    0.0698050716
H        1.4172989184   -2.2397218719    2.1140375136
H        3.0100246956   -1.4725755678    2.5934146662
H       -1.1889887774   -0.4739923692   -1.2353890435
H       -0.5618020003   -0.0925937669   -2.8635928100
H       -0.4439378991    1.1036207584   -1.5629680271
H        4.0507982873   -1.2839308466   -1.8321549006
H        5.6254379535   -1.3777198232   -0.9753369345
H        5.3506273520   -0.1621317946   -2.2462121801
H        0.3663453741   -0.7298397595    0.4605063040
26   
Generated by ForceBalance from scan.xyz: Frame 16 of 24
C        4.3238713309    2.1263894361    0.9205471544
C        5.0782610296    1.5631330404   -0.0867764077
C        3.4930201489    0.1657329288    0.5673458755
C        1.1337011952   -0.6248254570   -1.2775062621
C        3.1824304193   -2.4192561919    0.7191068434
C        2.5992920023   -1.8030964369    1.9668408931
C        2.5994985877   -1.0211102529    0.6726627244
C       -0.2339962220   -0.1097720006   -1.6896304898
C        5.0293666200   -0.6407013703   -1.3033555055
N        3.3439779390    1.2497809645    1.3220329400
N        4.5390304604    0.3124415634   -0.3131204974
N        1.2882024692   -0.8834915932    0.0644809848
O        2.0311112548   -0.8115468632   -2.0973498428
H        4.4352497594    3.1032348108    1.3738231861
H        5.9246068422    1.9256076806   -0.6535830519
H        4.2605186679   -2.5211494296    0.6573912424
H        2.6163374232   -3.1937258188    0.2130515022
H        1.6411420806   -2.1749137128    2.3178723399
H        3.2734495406   -1.4573690687    2.7423965341
H       -1.0056858757   -0.2738884577   -0.9323627455
H       -0.5285262340   -0.5957118847   -2.6217600587
H       -0.1566504311    0.9652348926   -1.8826795405
H        4.1934251575   -1.2259422286   -1.6812408382
H        5.7946664774   -1.2936722596   -0.8699277760
H        5.4679704467   -0.0870460498   -2.1360118160
H        0.5905494244   -0.4697901165    0.6736154388
26   
Generated by ForceBalance from scan.xyz: Frame 17 of 24
C        4.4461580818    2.1206824368    1.0446404574
C        5.1355875413    1.6017939024   -0.0307491790
C        3.5475250730    0.2046169817    0.6187891508
C        1.1274410790   -0.7305414747   -1.2890115702
C        3.1508590527   -2.3758370391    0.6779736295
C        2.5958176061   -1.7816863271    1.9480665927
C        2.6200475361   -0.9587828333    0.6774149350
C       -0.2226752950   -0.2030396797   -1.7433961059
C        4.9898606729   -0.5410828528   -1.3491228177
N        3.4631792017    1.2448387265    1.4417353968
N        4.5514707396    0.3807273413   -0.3047860232
N        1.3209784384   -0.7507159033    0.0699036044
O        1.9728345952   -1.1231119772   -2.0931058538
H        4.6047236944    3.0656567561    1.5485730845
H        5.9664577737    1.9754178098   -0.6130689009
H        4.2247606910   -2.5088737509    0.6027046942
H        2.5590541823   -3.1127268756    0.1467296641
H        1.6243074733   -2.1271662838    2.2882330250
H        3.2838228228   -1.4845578602    2.7316771226
H       -0.9628477011   -0.1516263558   -0.9400542326
H       -0.5989398909   -0.8421634992   -2.5446141220
H       -0.0832703772    0.8013910464   -2.1560152305
H        4.1353919616   -1.1121034922   -1.7095045734
H        5.7674096549   -1.2133731160   -0.9703062604
H        5.3989772755    0.0378639267   -2.1798437851
H        0.6675000948   -0.2170885141    0.6320600210
26   
Generated by ForceBalance from scan.xyz: Frame 18 of 24
C        4.7096342570    2.1001285671    1.3156495837
C        5.2820648197    1.6452190243    0.1468021825
C        3.6709072838    0.2791227591    0.8057149940
C        1.1156345739   -0.7373791030   -1.1133006017
C        3.1457482083   -2.2763501544    0.7911318919
C        2.6191555448   -1.6867484913    2.0748871311
C        2.6854157443   -0.8363167231    0.8216181811
C       -0.2481206017   -0.2391450877   -1.5622226496
C        4.9145269188   -0.3724060595   -1.3220386816
N        3.7093091507    1.2449183042    1.7169075427
N        4.6086762603    0.4846473640   -0.1796261110
N        1.4085062722   -0.5371835221    0.2095358407
O        1.8814494898   -1.3016192916   -1.8966234709
H        4.9617174896    2.9866651453    1.8834897846
H        6.0871356307    2.0252776340   -0.4668874060
H        4.2132012693   -2.4520565297    0.7071608631
H        2.5240577229   -2.9727081231    0.2406778595
H        1.6306174592   -1.9920177324    2.4039043596
H        3.3182123109   -1.4393640488    2.8658994713
H       -0.8291584135    0.2359880072   -0.7670652818
H       -0.8147575812   -1.0848247194   -1.9609365266
H       -0.1065863127    0.4751802446   -2.3776836446
H        4.0298096405   -0.9455681723   -1.5983814357
H        5.7414572855   -1.0504195571   -1.0838357405
H        5.2040871333    0.2535460895   -2.1692520005
H        0.7939243431    0.0615737974    0.7474135636
26   
Generated by ForceBalance from scan.xyz: Frame 19 of 24
C        4.8407719589    1.8980137882    1.6441018258
C        5.3548199579    1.5766566296    0.4060320140
C        3.7243457469    0.1848676992    0.9570339192
C        1.2179739025   -0.9834219230   -1.1551873372
C        3.1589326162   -2.3550899563    0.8736958126
C        2.5144826090   -1.7570729448    2.0977058942
C        2.7185991534   -0.9073259423    0.8575006680
C       -0.1320946180   -0.5201262265   -1.6790774462
C        4.8676871977   -0.2381235063   -1.2785432532
N        3.8267667593    1.0281187471    1.9772731520
N        4.6340632305    0.4827782844   -0.0308714083
N        1.5254160079   -0.5668932969    0.1122649746
O        1.9610223697   -1.6906505843   -1.8384824129
H        5.1424523005    2.6992169503    2.3066804739
H        6.1473434583    2.0093918675   -0.1890398735
H        4.2289738713   -2.5362537922    0.8924688694
H        2.5896895195   -3.0461278864    0.2640856496
H        1.4926258515   -2.0482586005    2.3207682240
H        3.1294767194   -1.5143246221    2.9568744699
H       -0.6555949775    0.1673394043   -1.0087937005
H       -0.7611029387   -1.3992477014   -1.8458407831
H        0.0168878637   -0.0350899068   -2.6469284100
H        4.0419024833   -0.9224337816   -1.4728665516
H        5.8039963494   -0.8032089599   -1.2216750935
H        4.9322919146    0.4732475632   -2.1062956223
H        0.8840869914    0.0651298722    0.5750281815
26   
Generated by ForceBalance from scan.xyz: Frame 20 of 24
C        5.1108801455    1.7348716042    1.6903943409
C        5.4571359657    1.5555768638    0.3684325540
C        3.7933389445    0.2067992442    0.9297636609
C        1.2587900654   -1.0912420860   -1.2415197390
C        3.0871294887   -2.2920958372    0.9469139647
C        2.3598189995   -1.5792671180    2.0569440038
C        2.7325960067   -0.8260609871    0.7927232436
C       -0.0567253243   -0.6031619719   -1.8291368666
C        4.5870534583    0.0571322138   -1.4750742516
N        4.0740844249    0.8930287492    2.0299211728
N        4.6156863791    0.5704394602   -0.1108221524
N        1.6540028015   -0.4459676104   -0.0970905807
O        1.9048393513   -1.9930318525   -1.7757952165
H        5.5482546040    2.4148746751    2.4101701857
H        6.2064408714    2.0192290774   -0.2584386907
H        4.1406683802   -2.5135819339    1.0860753393
H        2.5465378339   -2.9975570897    0.3286960710
H        1.3051539294   -1.8021307047    2.1868936980
H        2.8981203709   -1.3058267779    2.9572339716
H       -0.4032451562    0.3446814869   -1.4072201286
H       -0.8226243053   -1.3648232717   -1.6521299912
H        0.0600671564   -0.4978114198   -2.9097170415
H        4.0686904761   -0.9016225996   -1.5014956200
H        5.6098117430   -0.0794601335   -1.8353835312
H        4.0636482765    0.7521798344   -2.1398103120
H        1.0379444792    0.2707806117    0.2671605172
26   
Generated by ForceBalance from scan.xyz: Frame 21 of 24
C        5.0162440888    1.6422758159    1.7017515800
C        5.3898203173    1.4728868562    0.3857679480
C        3.7186887601    0.1158887205    0.9062452200
C        1.0958170063   -1.2560164053   -1.2370129237
C        3.0344454944   -2.3835141856    0.8985487321
C        2.2439113503   -1.6774759608    1.9705050046
C        2.6705690062   -0.9213039040    0.7254215231
C       -0.1913251985   -0.6833004998   -1.8130467214
C        4.5487035513   -0.0201168806   -1.4813880900
N        3.9748514393    0.7951587595    2.0156944291
N        4.5608974193    0.4878023914   -0.1155475813
N        1.6467225908   -0.5136719499   -0.2200994678
O        1.5914728924   -2.2909753790   -1.6810319403
H        5.4373748825    2.3186250201    2.4344718192
H        6.1500276292    1.9433351365   -0.2225731744
H        4.0833366296   -2.5865825043    1.0926789867
H        2.5321436162   -3.0974017403    0.2590383011
H        1.1865687769   -1.9129174075    2.0448230194
H        2.7316340529   -1.3995166503    2.8979927864
H       -0.3587520493    0.3665796090   -1.5552928863
H       -1.0353180468   -1.2718949962   -1.4388066614
H       -0.1676139149   -0.7915849627   -2.8990534582
H        4.1049151712   -1.0160552631   -1.5005773868
H        5.5729218512   -0.0802820883   -1.8570103655
H        3.9631359897    0.6332994541   -2.1360126468
H        1.0996685470    0.2777987635    0.0988468875
26   
Generated by ForceBalance from scan.xyz: Frame 22 of 24
C        4.9606348146    1.7031168725    1.6929603889
C        5.3972000610    1.5219580268    0.3981629032
C        3.7412664460    0.1272155743    0.8687703177
C        0.9873977303   -1.3057121159   -1.1656442663
C        3.1586173590   -2.3873959687    0.8054075951
C        2.3187594522   -1.7399753312    1.8809198524
C        2.7268479856   -0.9383996761    0.6623165044
C       -0.2089131740   -0.6006989440   -1.7909250431
C        4.6827726557   -0.0241998304   -1.4765833110
N        3.9293504936    0.8331610131    1.9751425319
N        4.6177649282    0.5066295406   -0.1218627531
N        1.7169149511   -0.5259907459   -0.3004488091
O        1.2573292246   -2.4718656621   -1.4493154975
H        5.3305143767    2.4027031861    2.4314674856
H        6.1718550269    2.0019190522   -0.1839386813
H        4.2130943808   -2.5432706739    1.0145029594
H        2.6888432608   -3.1113931855    0.1534344690
H        1.2739358943   -2.0308446131    1.9295908646
H        2.7767459582   -1.4632206868    2.8238833256
H       -0.1916384448    0.4867747190   -1.6739015025
H       -1.1233167210   -0.9873536869   -1.3296193590
H       -0.2443248998   -0.8504134269   -2.8532869344
H        4.2777246305   -1.0362915102   -1.4909934251
H        5.7235475598   -0.0541191170   -1.8075689456
H        4.1017181536    0.5934580881   -2.1686690062
H        1.3036333446    0.3699493446   -0.0681517004
26   
Generated by ForceBalance from scan.xyz: Frame 23 of 24
C        4.8980749382    1.7191104800    1.7780977503
C        5.4251741776    1.6038426905    0.5096904274
C        3.7565068019    0.1739219217    0.7983492418
C        0.9283577699   -1.1563954959   -1.2563662707
C        3.2564510525   -2.3308979789    0.5020440208
C        2.3510032864   -1.8100417157    1.5977568746
C        2.7712361779   -0.8899446951    0.4763289979
C       -0.1327471726   -0.3407235551   -1.9823293377
C        4.8612795415    0.1457686575   -1.4816590550
N        3.8603410396    0.8284776379    1.9465058381
N        4.6949168022    0.6088669551   -0.1110209959
N        1.8032852737   -0.4131593878   -0.5038222566
O        0.9742161694   -2.3810637891   -1.3635972057
H        5.2085886197    2.3850301348    2.5728933356
H        6.2334074509    2.1165835693    0.0065875128
H        4.3081139321   -2.4707556340    0.7368587950
H        2.8255546464   -3.0176433733   -0.2137575513
H        1.3213338919   -2.1513761368    1.5738685336
H        2.7614363861   -1.6028509546    2.5797164063
H        0.0690451470    0.7342560062   -1.9972167271
H       -1.0982206817   -0.5100116061   -1.4951926721
H       -0.2125304110   -0.7078976680   -3.0077366348
H        4.5210372041   -0.8870662844   -1.5598138147
H        5.9175129229    0.1935448632   -1.7559385481
H        4.2801592575    0.7581713775   -2.1783526966
H        1.5474038679    0.5570211084   -0.3638784515
26   
Generated by ForceBalance from scan.xyz: Frame 24 of 24
C        4.5341666041    1.7950288160    1.9040351134
C        5.1534580762    1.6183253760    0.6852363615
C        3.6122134528    0.0595034454    1.0161526528
C        0.7647321986   -1.6319467412   -0.7383470577
C        3.3993639851   -2.4931633430    0.7930449250
C        2.4642468839   -2.0470252900    1.9004381703
C        2.7514576477   -1.1210209660    0.7445202566
C       -0.3278392541   -0.9500496824   -1.5489516419
C        4.9355916560   -0.1191044339   -1.1397889903
N        3.5756859996    0.8247070031    2.0977623415
N        4.5552550431    0.5101136050    0.1180023646
N        1.7307608673   -0.7896621451   -0.2469056854
O        0.7684228219   -2.8499963743   -0.5652111385
H        4.7208349338    2.5631885523    2.6434182202
H        5.9407334743    2.1622697164    0.1815601577
H        4.4665703384   -2.5165724507    0.9967976866
H        3.0244220195   -3.2476942156    0.1134465528
H        1.4877153112   -2.5164680335    1.9165252834
H        2.8736207141   -1.7589290331    2.8623441745
H       -0.1339330159    0.1067070551   -1.7536801423
H       -1.2722608480   -1.0372236078   -1.0034062606
H       -0.4446480176   -1.4838664640   -2.4950392490
H        4.1073031512   -0.7244657924   -1.5071738215
H        5.8124308381   -0.7608488649   -1.0054316803
H        5.1662009864    0.6502612438   -1.8805702357
H        1.5158283896    0.1992034534   -0.2841510942
