25   

C        0.0068805345   -0.0810823572    1.3459005168
C        1.6315915788   -0.6648274863    2.9781618795
C       -0.8535716287   -1.0031502268    1.9414218701
C        1.2903646388    0.0991544980    1.8649608425
C        0.7114609957   -1.5718248622    3.5098644493
C        2.3068155728    1.0640187604    1.3402247223
C        2.8336462129    4.1089756251    0.8928313982
C        2.3050045290   -2.4958920137    5.2195317117
C        2.6594767244    2.9351756210   -0.0658274706
N       -0.5059793635   -1.7384558165    3.0068040172
N        0.9822361283   -2.3719281954    4.5945042334
O        3.4815460413    1.0179534684    1.6971545705
O        1.7633965729    1.9602501259    0.4871598488
H       -0.3312171270    0.4859995918    0.4874224263
H        2.6076863177   -0.5615600492    3.4313668991
H       -1.8459640941   -1.1317057391    1.5250628530
H        1.8632495628    4.5666935286    1.1069456460
H        3.2856280604    3.7729914471    1.8309994739
H        3.4869406839    4.8621231932    0.4427672977
H        3.0576326961   -2.7700250487    4.4726687645
H        2.2829549364   -3.2792426199    5.9837901588
H        2.5914537783   -1.5549729623    5.7006517938
H        3.6356504604    2.4913428353   -0.2915585253
H        2.2423413109    3.3015892052   -1.0090686018
H        0.2079577872   -2.9812748479    4.8332249350
25   

C       -0.0024654803   -0.1855631029    1.2506515073
C        1.6132868913   -0.6612449422    2.9260970329
C       -0.8582970320   -1.0839527165    1.8878651180
C        1.2749854004    0.0322566773    1.7672048216
C        0.6986061447   -1.5484915176    3.4987575084
C        2.2751099011    0.9929847864    1.2060392413
C        2.9399157736    4.0421272383    1.0446184368
C        2.2868281837   -2.3591707243    5.2692586884
C        2.5523383763    3.0061493162   -0.0058422267
N       -0.5119841491   -1.7569815690    2.9943517017
N        0.9676016417   -2.2826223150    4.6294307415
O        3.4802312809    0.8495033961    1.3947133812
O        1.6782889778    2.0174135929    0.5575825281
H       -0.3372305137    0.3365506305    0.3628699693
H        2.5846055768   -0.5170501226    3.3784087574
H       -1.8460842246   -1.2447352327    1.4717596871
H        2.0430510121    4.5190937663    1.4509954354
H        3.4953673249    3.5702023319    1.8607340111
H        3.5734866469    4.8104842207    0.5920574192
H        3.0481921006   -2.6626602647    4.5428807824
H        2.2675930122   -3.1024398865    6.0726287993
H        2.5590271102   -1.3915320323    5.7033338976
H        3.4543455911    2.5440474091   -0.4226659598
H        2.0328630031    3.5071431826   -0.8287204804
H        0.1986081504   -2.8882620674    4.8934228694
25   

C       -0.0021569118   -0.2886253622    1.1555705936
C        1.6014939278   -0.6426243889    2.8713682775
C       -0.8464494277   -1.1728807010    1.8272950850
C        1.2641710229   -0.0203196030    1.6729261234
C        0.6994940416   -1.5202535658    3.4779177874
C        2.2388730825    0.9462395074    1.0763455470
C        3.0669150717    3.9589600031    1.1817638488
C        2.2831567522   -2.2060963648    5.3040830572
C        2.4691804815    3.0817325896    0.0863131597
N       -0.4994285362   -1.7818377013    2.9702517481
N        0.9696525899   -2.1883042434    4.6485060306
O        3.4468734666    0.7278397287    1.0820488552
O        1.6224066748    2.0714178149    0.6528364361
H       -0.3360469084    0.1858776482    0.2412516616
H        2.5641436661   -0.4500670993    3.3239283635
H       -1.8257666375   -1.3751262333    1.4092640669
H        2.2688950429    4.4218878122    1.7698586623
H        3.7012964077    3.3634980337    1.8452623265
H        3.6775529313    4.7480523122    0.7333687590
H        3.0586915966   -2.5265614859    4.6003433044
H        2.2710104567   -2.9113189059    6.1411920614
H        2.5298109148   -1.2135219559    5.6949407907
H        3.2718561896    2.6343151760   -0.5107230248
H        1.8715166736    3.7052995907   -0.5859656847
H        0.2112013495   -2.7980142791    4.9329649698
25   

C       -0.0108759822   -0.4012221973    1.0665655652
C        1.5751150576   -0.6201675352    2.8195098734
C       -0.8342043799   -1.2852248669    1.7643769467
C        1.2360438471   -0.0650175702    1.5894988981
C        0.6954030085   -1.5024036091    3.4516318123
C        2.1794534535    0.9113924770    0.9554244961
C        3.2269094539    3.8390055929    1.2784996701
C        2.2733128404   -2.0506828550    5.3287292235
C        2.4096024990    3.1389520571    0.1974168114
N       -0.4847640357   -1.8299577219    2.9385764163
N        0.9702890945   -2.1075726341    4.6548505368
O        3.3555583999    0.6294483307    0.7488110403
O        1.5883533516    2.1112718599    0.7700226404
H       -0.3455943461    0.0202938134    0.1270926591
H        2.5231793906   -0.3721130858    3.2752122684
H       -1.7984965531   -1.5414240971    1.3410363072
H        2.5618654067    4.2652765397    2.0354716404
H        3.9103518405    3.1325182241    1.7591336032
H        3.8172719093    4.6453118691    0.8335858937
H        3.0707696432   -2.3701768886    4.6494773331
H        2.2739134814   -2.7219660545    6.1933858644
H        2.4775435578   -1.0348583362    5.6825476520
H        3.0789779327    2.7286252468   -0.5671046174
H        1.7631465035    3.8724660919   -0.2945862557
H        0.2299927929   -2.7324875468    4.9539132110
25   

C       -0.0356933106   -0.5032018689    0.9955169437
C        1.5073228748   -0.5633423129    2.7973350023
C       -0.8241098913   -1.4123566713    1.7013161905
C        1.1693194218   -0.0679607045    1.5422480382
C        0.6649954298   -1.4768935628    3.4361055951
C        2.0741851249    0.9292091628    0.8797495816
C        3.3788904336    3.7274220179    1.3408457230
C        2.2236984903   -1.8757483188    5.3663334135
C        2.3405055103    3.2165352494    0.3469473363
N       -0.4778133341   -1.8933554538    2.9038157078
N        0.9426226016   -2.0258336187    4.6653639171
O        3.1685425057    0.6076390478    0.4290675226
O        1.5506166020    2.1719013569    0.9327287296
H       -0.3643219806   -0.1413066477    0.0295001460
H        2.4256168865   -0.2441965986    3.2687633729
H       -1.7565197278   -1.7442437044    1.2595212431
H        2.8849395518    4.0903911856    2.2470817310
H        4.0774150946    2.9289801426    1.6087984378
H        3.9460456320    4.5497559051    0.8950799787
H        3.0545074968   -2.1631919702    4.7132376258
H        2.2434431743   -2.5255033455    6.2470687060
H        2.3591462643   -0.8415429775    5.6992604937
H        2.8385910022    2.8697690480   -0.5655021531
H        1.6787582691    4.0412736644    0.0642387218
H        0.2336725412   -2.6863603343    4.9640313348
25   

C       -0.0350450138   -0.6214214339    0.9241987355
C        1.4465039748   -0.5115178132    2.7729245118
C       -0.7698952903   -1.5754854379    1.6283452724
C        1.1049630317   -0.0657313930    1.5003941698
C        0.6611542859   -1.4765358481    3.4088659209
C        1.9627876354    0.9576757738    0.8134414703
C        3.5371199485    3.5983221298    1.3240245272
C        2.1919553559   -1.7150842309    5.3875786753
C        2.2984089134    3.2756364349    0.4941289668
N       -0.4269577847   -1.9963439803    2.8539831575
N        0.9459304194   -1.9770111232    4.6570298681
O        2.9035927884    0.6344003588    0.0965405662
O        1.5505995361    2.2105863176    1.0979212205
H       -0.3526544962   -0.3205580553   -0.0661849960
H        2.3223345962   -0.1116955125    3.2627780799
H       -1.6539526461   -1.9970875976    1.1642113992
H        3.2462136044    3.8705999586    2.3429880246
H        4.2081021264    2.7347834013    1.3614497608
H        4.0761956403    4.4377804730    0.8753576632
H        3.0600258009   -1.9451458172    4.7607421565
H        2.2397517314   -2.3483467080    6.2791918631
H        2.2360793950   -0.6685980809    5.7064262038
H        2.5930455127    3.0201969017   -0.5299692651
H        1.6622880480    4.1646209271    0.4385936185
H        0.2837518637   -2.6871740983    4.9492756335
25   

C       -0.0277076939   -0.7187286514    0.8644965412
C        1.3754249784   -0.4491834931    2.7559473177
C       -0.6980850481   -1.7240504062    1.5612436922
C        1.0313365455   -0.0455824336    1.4697048514
C        0.6585227608   -1.4712845102    3.3836939249
C        1.8358574251    1.0114430516    0.7719612644
C        3.6636305772    3.4768746015    1.2804864710
C        2.1440300522   -1.5498635341    5.4095515130
C        2.2765737430    3.3321218578    0.6618516384
N       -0.3613871919   -2.0930072708    2.8050984312
N        0.9493013054   -1.9303829594    4.6462901315
O        2.5741012948    0.7392422116   -0.1686594826
O        1.5694971188    2.2396673084    1.2656115009
H       -0.3291979631   -0.4701618278   -0.1454334453
H        2.1987161652    0.0306107465    3.2646740741
H       -1.5219958328   -2.2331004171    1.0746538046
H        3.5791401722    3.6306266468    2.3604487737
H        4.2619960852    2.5803346494    1.0918419421
H        4.1782500427    4.3366101430    0.8416344650
H        3.0479775666   -1.7095394648    4.8122542714
H        2.2201212623   -2.1656051321    6.3114177473
H        2.0855141154   -0.4998114904    5.7140203525
H        2.3646629800    3.1958453205   -0.4218605939
H        1.7105533774    4.2537309187    0.8299848218
H        0.3430642765   -2.6922419598    4.9297280401
25   

C       -0.0086049288   -0.7793782666    0.8176305814
C        1.3109634356   -0.3814774233    2.7450938763
C       -0.6141715210   -1.8317455784    1.5037187103
C        0.9698053838   -0.0121552857    1.4471367435
C        0.6627036937   -1.4550449101    3.3615683280
C        1.7132082991    1.0875839118    0.7530705716
C        3.7586085480    3.3800024595    1.2212356911
C        2.0880057769   -1.3943870741    5.4311553548
C        2.2811263252    3.3824323869    0.8405218328
N       -0.2854776055   -2.1625290470    2.7602718967
N        0.9554108358   -1.8820964458    4.6349148664
O        2.2447597376    0.9101316140   -0.3381039682
O        1.6120859241    2.2560960688    1.4249874581
H       -0.2952041033   -0.5667074599   -0.2050199044
H        2.0782805592    0.1663190297    3.2725203342
H       -1.3769208857   -2.4118740308    0.9973594031
H        3.8661701907    3.3978172985    2.3099145661
H        4.2537051832    2.4873169140    0.8269300771
H        4.2513320563    4.2631539988    0.8043242631
H        3.0214123175   -1.4837639820    4.8653603680
H        2.1853582916   -1.9920330854    6.3430942869
H        1.9317163785   -0.3498360737    5.7196443654
H        2.1775484536    3.3824143958   -0.2503455723
H        1.8158676734    4.3006294119    1.2125992957
H        0.4052311044   -2.6887364617    4.9086566010
25   

C        0.0460166175   -0.8233049160    0.7748354068
C        1.2668838117   -0.3354897300    2.7450069431
C       -0.5027237454   -1.9199040042    1.4385719414
C        0.9446829862    0.0132579000    1.4358329513
C        0.6795986278   -1.4563595180    3.3381342844
C        1.6187093045    1.1674762983    0.7636076975
C        3.8305565140    3.3160050304    1.1465353803
C        2.0219017625   -1.2943028094    5.4574007893
C        2.3131561023    3.4149346158    1.0209282861
N       -0.1925148786   -2.2301980236    2.7047368542
N        0.9601844443   -1.8654838545    4.6200813919
O        1.9595863461    1.1094867578   -0.4137388178
O        1.6882116498    2.2482142631    1.5742785240
H       -0.2229534939   -0.6282773654   -0.2563440521
H        1.9732488521    0.2634638033    3.3013936452
H       -1.2035815756   -2.5524593558    0.9062049323
H        4.1138352676    3.1958793943    2.1964904861
H        4.2069324631    2.4625363651    0.5743035898
H        4.2958799067    4.2266566183    0.7582982601
H        2.9803654705   -1.3145174631    4.9279834955
H        2.1281384379   -1.8823304578    6.3745801785
H        1.7775772854   -0.2640165032    5.7359033204
H        2.0345527781    3.5527572518   -0.0298391652
H        1.9639910508    4.2954426475    1.5693465111
H        0.4610897419   -2.7105689114    4.8750643005
25   

C        0.0996733083   -0.8761708487    0.7511835854
C        1.2213561849   -0.3218557174    2.7609736049
C       -0.3999553858   -2.0086545510    1.3924182094
C        0.9256943321    0.0121473110    1.4410200236
C        0.6867551617   -1.4808245682    3.3307470324
C        1.5266111330    1.2178166999    0.7911165458
C        3.8713521681    3.2486365204    1.0126198405
C        1.9345339742   -1.2390340836    5.5002677562
C        2.3601011761    3.4029719893    1.1550618837
N       -0.1120570285   -2.3057483522    2.6665216552
N        0.9475296446   -1.8771953472    4.6209403664
O        1.6811412718    1.2744418322   -0.4252511769
O        1.7815435498    2.2016743472    1.6846133256
H       -0.1533636913   -0.6918545153   -0.2861733545
H        1.8679913712    0.3132862909    3.3488676819
H       -1.0432744007   -2.6801126145    0.8356110673
H        4.3178615092    3.0083533929    1.9821315603
H        4.1091624744    2.4514063977    0.3017200955
H        4.3074242760    4.1823343170    0.6457518354
H        2.9134569023   -1.1974599954    5.0110840083
H        2.0399617502   -1.8191547884    6.4225590554
H        1.6131623829   -0.2266541509    5.7659258358
H        1.9190582420    3.6608065735    0.1856506561
H        2.1465158001    4.2289923852    1.8406470350
H        0.4929399313   -2.7523121738    4.8571038068
25   

C        0.1840432814   -0.9004586441    0.7300062657
C        1.1930840094   -0.3049847980    2.7862085373
C       -0.2740483901   -2.0666853686    1.3404061489
C        0.9360440605    0.0249057155    1.4567222080
C        0.7042527785   -1.4993527454    3.3237163021
C        1.4674248711    1.2804174288    0.8405157902
C        3.9019917884    3.2224375855    0.8634509534
C        1.8449789287   -1.2102391353    5.5461855409
C        2.4412602571    3.3950782521    1.2686289571
N       -0.0180678245   -2.3618528926    2.6212920748
N        0.9331522673   -1.8934627376    4.6207091034
O        1.4447078337    1.4499729908   -0.3752262489
O        1.9096351660    2.1599118889    1.7689637425
H       -0.0468810432   -0.7177240453   -0.3128776107
H        1.7742428592    0.3554336441    3.4130210578
H       -0.8584314325   -2.7657719555    0.7534388436
H        4.4907570984    2.8753019361    1.7177880094
H        3.9899739216    2.4962296059    0.0496031646
H        4.3081209176    4.1786189408    0.5209141808
H        2.8398595329   -1.1098111072    5.0996000608
H        1.9433478976   -1.7925678483    6.4678604621
H        1.4568183911   -0.2198226858    5.8053714176
H        1.8587478979    3.7596020370    0.4150484550
H        2.3742816519    4.1522212945    2.0561508522
H        0.5191825063   -2.7950497683    4.8305064826
25   

C       -0.2165355167   -0.1450524029    1.1671078175
C        1.6037171909   -0.9779460576    2.4288019946
C       -1.0725457419   -0.6644295583    2.1364777288
C        1.1663382290   -0.2939569980    1.2958189243
C        0.6809504471   -1.4630802787    3.3603947249
C        2.1228154593    0.2448069853    0.2788622929
C        4.7248570568    1.9348506934   -0.0428114723
C        2.4251309661   -2.2690239986    4.9830515123
C        4.4007575051    0.4708908672   -0.3241103801
N       -0.6293717683   -1.3147499874    3.2197487855
N        1.0438404456   -2.1312369345    4.5057535947
O        1.7210500475    0.8448500328   -0.7141556938
O        3.4125524201   -0.0123886527    0.5971802610
H       -0.6329992834    0.3739709214    0.3117972735
H        2.6571957816   -1.1409014819    2.6026438860
H       -2.1411791215   -0.5352737330    2.0095908245
H        3.8371901218    2.5579823204   -0.1882735729
H        5.0786443373    2.0507689393    0.9859766211
H        5.5068884747    2.2799065127   -0.7254105006
H        2.9026951740   -1.2867445616    5.0628276789
H        3.0034617512   -2.9048172264    4.3047658325
H        2.4305744082   -2.7313491615    5.9752655720
H        5.3107931195   -0.1263544794   -0.2097903631
H        4.0639253378    0.3569646321   -1.3606516067
H        0.2438688970   -2.3944705256    5.0705497206
25   

C       -0.2422358474   -0.2203959624    1.1243830346
C        1.6037034535   -0.9329982818    2.4227966294
C       -1.0812660362   -0.7914964597    2.0795586752
C        1.1442244831   -0.2867055744    1.2766654845
C        0.6966878950   -1.4741059900    3.3387402591
C        2.0854181185    0.3288016418    0.2899209015
C        4.8122250680    1.8146570175    0.0504842551
C        2.4582190484   -2.1555861422    4.9990817899
C        4.3351832360    0.4497365325   -0.4364517492
N       -0.6176372904   -1.4113994636    3.1723052213
N        1.0801138818   -2.1100899126    4.4956309529
O        1.6814432437    1.0949069239   -0.5802366318
O        3.3595006478   -0.0920785284    0.4652459360
H       -0.6738258262    0.2762338561    0.2633291119
H        2.6627656135   -1.0195225860    2.6169429355
H       -2.1534812205   -0.7281624021    1.9342987950
H        3.9808823305    2.5259729293    0.0696012613
H        5.2328938201    1.7289976819    1.0568353663
H        5.5837592245    2.2003696299   -0.6222089146
H        2.8697054755   -1.1440359445    5.0812748361
H        3.0890243494   -2.7561537627    4.3356281682
H        2.4749518980   -2.6112592980    5.9942448349
H        5.1891853756   -0.2332110982   -0.4834228595
H        3.9308300916    0.5369324753   -1.4511890236
H        0.2883032482   -2.4214252229    5.0473122230
25   

C       -0.2565973599   -0.2887265522    1.0772258660
C        1.5968584167   -0.8835585500    2.4247445353
C       -1.0818248345   -0.9130472727    2.0113271742
C        1.1261735148   -0.2730978143    1.2641520783
C        0.7033469196   -1.4821350497    3.3174983659
C        2.0555403988    0.4204452873    0.3194364472
C        4.8863824125    1.6903011884    0.1066717688
C        2.4622122790   -2.0450777084    5.0239057326
C        4.2563363270    0.4658156751   -0.5503332524
N       -0.6076448986   -1.5042477887    3.1159265423
N        1.0970248377   -2.0891726250    4.4863599322
O        1.6649789900    1.3332117658   -0.4023302301
O        3.2908826578   -0.1320214487    0.3264492013
H       -0.6947606892    0.1875254274    0.2081428474
H        2.6553794340   -0.8941102056    2.6405728775
H       -2.1520943759   -0.9152609815    1.8402489119
H        4.1272451563    2.4548823494    0.2980742951
H        5.3571510299    1.4087177468    1.0533230607
H        5.6485013731    2.1152829540   -0.5529548857
H        2.8061593781   -1.0090879275    5.1119049719
H        3.1463653946   -2.6059079311    4.3787927194
H        2.4831980407   -2.4959611655    6.0211717686
H        5.0387786029   -0.2684559693   -0.7661673560
H        3.8013407706    0.7487411175   -1.5062034740
H        0.3132095398   -2.4496945760    5.0191927449
25   

C       -0.2467569376   -0.3616869146    1.0403234314
C        1.5955274571   -0.8465957482    2.4477772817
C       -1.0606357708   -1.0444677553    1.9434204971
C        1.1245164764   -0.2642390156    1.2737204557
C        0.7133950825   -1.5072014196    3.3071556391
C        2.0434978861    0.5074387316    0.3801788917
C        4.9563321828    1.5598116257    0.1289560650
C        2.4444125231   -1.9547945504    5.0742920258
C        4.1695989285    0.5163249780   -0.6586037208
N       -0.5860542909   -1.6126777479    3.0603705627
N        1.1063902699   -2.0932368648    4.4868249514
O        1.6822493763    1.5477851702   -0.1610078343
O        3.2170185075   -0.1383438967    0.1910952182
H       -0.6842381580    0.0974873422    0.1619833148
H        2.6460243436   -0.7859344762    2.6928084733
H       -2.1226515662   -1.1121890819    1.7378016596
H        4.2875070364    2.3408569400    0.5033322789
H        5.4643967526    1.0877712623    0.9752012482
H        5.7064491853    2.0253217166   -0.5169273855
H        2.7137678570   -0.8975843408    5.1696591854
H        3.1885821202   -2.4694705403    4.4577971202
H        2.4587709224   -2.4003736433    6.0740615399
H        4.8625966068   -0.2329170572   -1.0540328258
H        3.6766502136    0.9897392750   -1.5151128314
H        0.3297830820   -2.5049492995    4.9924483771
25   

C       -0.2263031648   -0.4371287522    1.0142885413
C        1.5843951871   -0.8080383827    2.4970110842
C       -1.0283559881   -1.1828090364    1.8777587270
C        1.1230993140   -0.2501357501    1.3081342066
C        0.7145783829   -1.5356810431    3.3135762915
C        2.0296696126    0.5950169907    0.4669097161
C        4.9956229774    1.4483945529    0.1025648169
C        2.3944688540   -1.8741779006    5.1525318989
C        4.0514179088    0.6176704075   -0.7613098879
N       -0.5629856720   -1.7279792330    3.0102798114
N        1.0973777625   -2.1042951522    4.5050491021
O        1.7184725671    1.7353837122    0.1391625979
O        3.1182500865   -0.0962882479    0.0616781194
H       -0.6566531042    0.0008413923    0.1220089158
H        2.6174547497   -0.6759081908    2.7840030988
H       -2.0737616935   -1.3208413547    1.6271409807
H        4.4363293936    2.2038111111    0.6629412227
H        5.5279616320    0.8016004059    0.8063982242
H        5.7279569513    1.9573678045   -0.5308239469
H        2.5843329585   -0.8010172470    5.2604114863
H        3.1999983296   -2.3331746755    4.5701371641
H        2.3950304938   -2.3210775742    6.1518172315
H        4.6358285741   -0.1048359662   -1.3396192341
H        3.5333150972    1.2662366527   -1.4766079422
H        0.3298983627   -2.5714493028    4.9752006985
25   

C       -0.1719763269   -0.4912883813    0.9950883975
C        1.5738987443   -0.7582040912    2.5761807842
C       -0.9692337358   -1.2986005807    1.8063556795
C        1.1409319227   -0.2152010615    1.3706004875
C        0.7103089405   -1.5513329247    3.3363596337
C        2.0469643606    0.6835808577    0.5815031330
C        5.0414056521    1.3253275895    0.0344905792
C        2.3014366561   -1.7958950088    5.2665000967
C        3.9361580246    0.7405536757   -0.8396117394
N       -0.5328157758   -1.8239392421    2.9597125966
N        1.0641609871   -2.1095890935    4.5415999109
O        1.8398869821    1.8893532606    0.4972640355
O        3.0159077256   -0.0191290977   -0.0433951811
H       -0.5786387774   -0.0778862625    0.0805585106
H        2.5788847113   -0.5626085183    2.9205072449
H       -1.9866036230   -1.5050778222    1.4948170464
H        4.6214965001    2.0203535166    0.7679939843
H        5.5678297444    0.5235714623    0.5609522325
H        5.7588226203    1.8684076804   -0.5875595473
H        2.4103956874   -0.7130779279    5.3890430633
H        3.1698913169   -2.1944397821    4.7320078424
H        2.2731444207   -2.2489374049    6.2626138471
H        4.3829140983    0.0791966081   -1.5886290273
H        3.4228688014    1.5448835028   -1.3784540132
H        0.3039309029   -2.6309126350    4.9641659155
25   

C       -0.0790564706   -0.5503169002    0.9641136522
C        1.5730880981   -0.7082871741    2.6583183946
C       -0.8699695836   -1.4172286150    1.7184250828
C        1.1784032318   -0.1785902047    1.4342456214
C        0.7183616161   -1.5652969252    3.3564815649
C        2.0927780181    0.7569022311    0.6967483108
C        5.0819674094    1.1859798466   -0.0732448383
C        2.1960782111   -1.7222174195    5.3831110074
C        3.8352677142    0.8762054526   -0.8960675265
N       -0.4761771467   -1.9183923179    2.8976958198
N        1.0324324918   -2.1123873276    4.5777655245
O        2.0508304043    1.9700487231    0.8701981385
O        2.9135645128    0.0826175792   -0.1352794962
H       -0.4475238975   -0.1692969842    0.0200214603
H        2.5393152989   -0.4500843151    3.0665223417
H       -1.8456146826   -1.6953705644    1.3370069352
H        4.8208155585    1.7792808511    0.8082937744
H        5.5598821433    0.2561257285    0.2492716225
H        5.7932758310    1.7564799445   -0.6775336054
H        2.2219182419   -0.6358256906    5.5190690329
H        3.1224719309   -2.0545457230    4.9034281158
H        2.1355168857   -2.1867475873    6.3724662787
H        4.1259013869    0.3167759273   -1.7908289956
H        3.3695013278    1.8097440219   -1.2313356992
H        0.2840803822   -2.6880682416    4.9476036942
25   

C       -0.1916879119    0.4776502533    1.9952040140
C        1.5950536691   -0.5203387440    3.1958135702
C       -0.9808972462   -0.6161651023    2.3511037899
C        1.1296548116    0.5444761474    2.4313202580
C        0.7421268931   -1.5840781782    3.5020310905
C        2.0642035502    1.6652146493    2.0816458433
C        2.5879697957    3.8704186872   -0.0467229677
C        2.5119692039   -2.9334695602    4.6712721231
C        3.3551891382    2.6098433536    0.3406597634
N       -0.5205168697   -1.6322340774    3.0943522000
N        1.1324112997   -2.6751358949    4.2414884723
O        2.4469750906    2.4727191192    2.9214848823
O        2.4514899346    1.5905213845    0.7904744583
H       -0.6101072891    1.2678454216    1.3847820813
H        2.6149119264   -0.5169052608    3.5525546182
H       -2.0089550302   -0.6484476826    2.0093760752
H        1.8570315567    3.6403728317   -0.8277012509
H        2.0660309520    4.2827884422    0.8221662230
H        3.2820783451    4.6261385700   -0.4257492193
H        3.1864682217   -2.9405903493    3.8085522277
H        2.5720120127   -3.9120113832    5.1582282731
H        2.8395583714   -2.1730327455    5.3876751827
H        4.0978486387    2.8479468461    1.1104034756
H        3.8987436852    2.2377225953   -0.5334525760
H        0.3886905994   -3.3544840837    4.3572796898
25   

C       -0.1111935334    0.4084005876    1.8778445452
C        1.6169818908   -0.5496494558    3.1933458803
C       -0.9240181044   -0.6627574174    2.2492698223
C        1.1903809309    0.4867981722    2.3689902084
C        0.7426905225   -1.5923736941    3.5105855732
C        2.1632637171    1.5647232543    1.9994691637
C        2.5815906617    3.9770381839    0.0847443183
C        2.4550552830   -2.9060302293    4.7990634042
C        3.2614315167    2.6150111064    0.1870972331
N       -0.5035440352   -1.6478833684    3.0554522069
N        1.0943890173   -2.6548386004    4.3087347095
O        2.7714229443    2.2049243286    2.8511756001
O        2.3353237666    1.6271883076    0.6609239646
H       -0.4944289884    1.1703759456    1.2109123325
H        2.6231142419   -0.5394609866    3.5878615972
H       -1.9368448677   -0.7040777870    1.8656138171
H        1.7171515388    3.9163644572   -0.5832363151
H        2.2488448654    4.3135684219    1.0714087071
H        3.2841727761    4.7140635717   -0.3149114319
H        3.1607943205   -2.9516207277    3.9628946404
H        2.4889536862   -3.8651973383    5.3254731318
H        2.7626643958   -2.1203971013    5.4969056276
H        4.1366829540    2.6840698270    0.8427446531
H        3.6184709118    2.3166165959   -0.8035975819
H        0.3413647792   -3.3241014133    4.4226884779
25   

C       -0.0554138596    0.3215699268    1.7613418439
C        1.6311893514   -0.5846201496    3.1663688020
C       -0.8890194557   -0.7197583571    2.1693993228
C        1.2362900203    0.4113282767    2.2778993148
C        0.7371648608   -1.5994204206    3.5170912986
C        2.2366573867    1.4520709803    1.8829800443
C        2.5848932528    4.0588590401    0.2269724301
C        2.4034682805   -2.8610470387    4.9131232721
C        3.1463932596    2.6503709811    0.0571417351
N       -0.4988873932   -1.6652709302    3.0360529857
N        1.0574940329   -2.6221772429    4.3778980625
O        3.0168965330    1.9369452532    2.6971434628
O        2.2153311514    1.6766181279    0.5502564483
H       -0.4149832434    1.0511122160    1.0464549774
H        2.6280928467   -0.5665125142    3.5840410204
H       -1.8931980959   -0.7705740599    1.7647262838
H        1.6291446876    4.1484059147   -0.2980379018
H        2.4336623350    4.2852348585    1.2868672387
H        3.2843487677    4.7903989255   -0.1879444953
H        3.1279682711   -2.9580106590    4.0976228693
H        2.4141314485   -3.7912676740    5.4900291960
H        2.7038220558   -2.0427179465    5.5756694063
H        4.1116907916    2.5700454400    0.5694529170
H        3.3244828897    2.4607064484   -1.0060103710
H        0.2945703870   -3.2769894904    4.5084212118
25   

C       -0.0131330512    0.2326640306    1.6523127644
C        1.6473094957   -0.6079978665    3.1289485267
C       -0.8614879421   -0.7766166586    2.1073999526
C        1.2752272714    0.3374285869    2.1769973632
C        0.7388003641   -1.5931720387    3.5240685178
C        2.2928626729    1.3492863493    1.7544323251
C        2.6183556238    4.1246359018    0.3855719581
C        2.3739516189   -2.7885811520    5.0121135600
C        3.0333382962    2.7164444159   -0.0299080270
N       -0.4912670689   -1.6754533188    3.0304747205
N        1.0371827349   -2.5675276700    4.4467662219
O        3.2076246692    1.6910250295    2.4992493725
O        2.1031844690    1.7486963904    0.4769495955
H       -0.3610637304    0.9256442106    0.8963135040
H        2.6375903210   -0.5785957850    3.5617668458
H       -1.8615393837   -0.8402588729    1.6944027332
H        1.6097254589    4.3421673879    0.0216685188
H        2.6344243273    4.2223911732    1.4753685679
H        3.3113941422    4.8567758619   -0.0389497399
H        3.1081066582   -2.9356607949    4.2128954602
H        2.3686469418   -3.6862548686    5.6385193400
H        2.6732717120   -1.9381200528    5.6333864415
H        4.0505190791    2.5092632816    0.3210336813
H        3.0463504661    2.6538569487   -1.1225590763
H        0.2666839045   -3.2077183729    4.6026596738
25   

C        0.0079496360    0.1322049895    1.5457539550
C        1.6517749399   -0.6378501857    3.0786437968
C       -0.8513054715   -0.8437440600    2.0501071399
C        1.2967201392    0.2531015914    2.0689075051
C        0.7322684378   -1.5920599436    3.5215160510
C        2.3240808932    1.2414399867    1.6137058883
C        2.6697277750    4.1512836455    0.5571097612
C        2.3446275902   -2.7108658320    5.0920686332
C        2.9106864755    2.7865934321   -0.0810912244
N       -0.4945381800   -1.6929833801    3.0237369327
N        1.0148357093   -2.5135135091    4.5018488439
O        3.3513448459    1.4436905991    2.2565445988
O        1.9878642539    1.8184027493    0.4385311760
H       -0.3350656636    0.7865100877    0.7538597657
H        2.6373282115   -0.5952204245    3.5210116725
H       -1.8497052457   -0.9213352416    1.6354965909
H        1.6402479260    4.4745282083    0.3761511809
H        2.8459025537    4.1055785820    1.6361428502
H        3.3517692078    4.8892379642    0.1249138201
H        3.0850372353   -2.9097304358    4.3100057828
H        2.3265289469   -3.5701852925    5.7699052502
H        2.6448396079   -1.8276944934    5.6654403708
H        3.9476340877    2.4748138077    0.0871469121
H        2.7657420330    2.8659672831   -1.1630582394
H        0.2382431836   -3.1383625286    4.6869146791
25   

C        0.0014647470    0.0232529661    1.4471723058
C        1.6331767285   -0.6590573192    3.0337092134
C       -0.8620722213   -0.9224978410    1.9993762688
C        1.2886617472    0.1698137672    1.9688291751
C        0.7095277226   -1.5862156175    3.5229892578
C        2.3164778368    1.1413422201    1.4788156812
C        2.7401602755    4.1390549306    0.7286297442
C        2.3081456440   -2.6137527483    5.1680698854
C        2.7782793153    2.8526383245   -0.0906055315
N       -0.5130962155   -1.7157040531    3.0217504882
N        0.9826266069   -2.4480323200    4.5587151437
O        3.4312454225    1.2111947002    1.9909388657
O        1.8634430729    1.8860432065    0.4460764992
H       -0.3383535852    0.6338909817    0.6198220028
H        2.6136319909   -0.5916102353    3.4841739111
H       -1.8578818841   -1.0221890464    1.5832611061
H        1.7247789203    4.5463129828    0.7420794699
H        3.0625324437    3.9477227069    1.7566641019
H        3.4115374460    4.8809484318    0.2865759353
H        3.0537019127   -2.8562321867    4.4033851110
H        2.2842892364   -3.4341816889    5.8923208588
H        2.6055666516   -1.7004752058    5.6937470251
H        3.8002506390    2.4580220609   -0.1163860739
H        2.4892494681    3.0759386685   -1.1223792879
H        0.2046077946   -3.0621323531    4.7716546269
