22   

C        1.8217361801   -0.1952553608    0.1220951644
C        0.5364236026   -0.4648075343    0.5852670331
C        2.9215620388   -0.4289308480    0.9502301938
C        0.3558695511   -0.9722944709    1.8727761693
C        2.7602446371   -0.9282505904    2.2537354472
C        1.4505710632   -1.2115023192    2.7216419733
C        3.9531985060   -1.1290921218    3.0993932345
C        5.2694877430   -0.8026800157    2.8750549637
C        1.2021042968   -1.7842790507    4.0968766875
C        6.3746217888   -1.6108833429    2.2243155503
H        1.9683230707    0.1976383973   -0.8774395157
H       -0.3212959663   -0.2830856374   -0.0523180163
H        3.9154734697   -0.2103601883    0.5782053442
H       -0.6506800604   -1.1826272716    2.2152278295
H        3.7377045513   -1.3225318923    4.1423633192
H        5.6907605860   -0.2712748137    3.7217433421
H        1.7873405556   -2.6985757389    4.2358720774
H        1.4820252636   -1.0563365991    4.8642677053
H        0.1460013189   -2.0361088057    4.2317672399
H        7.1964694893   -1.7699731842    2.9288134853
H        5.9913713304   -2.5850660480    1.9059428366
H        6.7576802368   -1.0811466903    1.3473918886
22   

C        1.9157470069   -0.2596726803    0.1248456236
C        0.6165192515   -0.5046555808    0.5616237654
C        2.9900661746   -0.4572919091    0.9947695285
C        0.3965042602   -0.9510442462    1.8653523496
C        2.7888643338   -0.8920198415    2.3165916628
C        1.4647368258   -1.1502461840    2.7571061058
C        3.9509288606   -1.0579426601    3.2115149556
C        5.2683485942   -0.7942056483    2.9670551580
C        1.1754781002   -1.6721831990    4.1445332190
C        6.2419611261   -1.5944965357    2.1295795955
H        2.0929308509    0.0868114625   -0.8868204304
H       -0.2212832963   -0.3523342126   -0.1092769383
H        3.9934738920   -0.2553229089    0.6400959110
H       -0.6200029229   -1.1472546801    2.1860791680
H        3.7091236654   -1.1570636113    4.2621897089
H        5.7764856399   -0.3763930109    3.8295402209
H        1.7756583914   -2.5655144416    4.3438552966
H        1.4078297607   -0.9072501788    4.8913461164
H        0.1213729612   -1.9463834397    4.2479595754
H        7.1081848677   -1.8876306946    2.7302476448
H        5.7576381886   -2.4983579444    1.7473442555
H        6.5860780957   -0.9952022777    1.2816987514
22   

C        1.9894752517   -0.3212725744    0.1295432848
C        0.6818832465   -0.5524613026    0.5473840427
C        3.0443923072   -0.4697765564    1.0322896237
C        0.4340063677   -0.9343293067    1.8661928178
C        2.8154364435   -0.8377613234    2.3709119676
C        1.4819564725   -1.0797852974    2.7917129338
C        3.9496860461   -0.9540397934    3.3096488035
C        5.2718480682   -0.8033437466    3.0405424708
C        1.1645934464   -1.5490786808    4.1917190690
C        6.1010109956   -1.6096942927    2.0681300118
H        2.1882630626   -0.0220080300   -0.8931151557
H       -0.1405719553   -0.4399606733   -0.1498538277
H        4.0513680284   -0.2717592938    0.6875998699
H       -0.5882349798   -1.1248458727    2.1717276255
H        3.6955717467   -0.9633256767    4.3623231032
H        5.8561975760   -0.4689629794    3.8909676384
H        1.7858228123   -2.4127191155    4.4494670590
H        1.3480135504   -0.7451798109    4.9104457699
H        0.1174770560   -1.8555833413    4.2735190320
H        6.9806290747   -2.0208438681    2.5723978967
H        5.5119026420   -2.4377176562    1.6615784685
H        6.4336997858   -0.9743756975    1.2421506274
22   

C        2.0316984242   -0.3577956326    0.1379213664
C        0.7202678492   -0.5872792081    0.5427343002
C        3.0737405675   -0.4654520689    1.0610231004
C        0.4554946639   -0.9236244061    1.8701829949
C        2.8291929341   -0.7905430184    2.4091641409
C        1.4899342949   -1.0251978290    2.8165731035
C        3.9408906428   -0.8659347598    3.3788418925
C        5.2662531168   -0.8478981216    3.1106868506
C        1.1544874941   -1.4568656389    4.2245226234
C        5.9805488523   -1.6240643588    2.0322286914
H        2.2435430542   -0.0891800945   -0.8906157758
H       -0.0918935629   -0.5078001815   -0.1709245001
H        4.0794487436   -0.2575485958    0.7212046432
H       -0.5694525424   -1.1148340001    2.1660057298
H        3.6792124815   -0.8110238905    4.4284431975
H        5.8969450350   -0.6029660618    3.9584061229
H        1.7914950966   -2.2954512816    4.5234917112
H        1.3014279438   -0.6258406475    4.9202305207
H        0.1144250551   -1.7894476504    4.2938500492
H        6.8509977244   -2.1358816374    2.4534529843
H        5.3151470442   -2.3752293139    1.5950916568
H        6.3219770484   -0.9472108711    1.2436096639
22   

C        2.0566268294   -0.3752173742    0.1440892920
C        0.7457798465   -0.6106918877    0.5456103040
C        3.0939163605   -0.4491160218    1.0756515360
C        0.4766322658   -0.9158864021    1.8792893259
C        2.8468140678   -0.7478440385    2.4304152912
C        1.5060013996   -0.9816680670    2.8344183926
C        3.9458931223   -0.7887228665    3.4177773021
C        5.2640742623   -0.9128678013    3.1642209043
C        1.1655173356   -1.3880613399    4.2487604238
C        5.8994606687   -1.6321136966    2.0022226780
H        2.2716980932   -0.1256766161   -0.8885851514
H       -0.0624457692   -0.5584835557   -0.1750003135
H        4.0947447338   -0.2246791279    0.7342333586
H       -0.5478757436   -1.1122212470    2.1732054598
H        3.6823742044   -0.6855757069    4.4634050342
H        5.9181691738   -0.7573733224    4.0152849463
H        1.8182184178   -2.2045495414    4.5740577238
H        1.2852546807   -0.5380028072    4.9263094429
H        0.1330993517   -1.7443812572    4.3146781178
H        6.7590274564   -2.2125010925    2.3505952632
H        5.1884501528   -2.3218043789    1.5366689014
H        6.2492039426   -0.9126493489    1.2561022801
22   

C        2.0691345898   -0.3901630780    0.1464291014
C        0.7589662580   -0.6230945448    0.5503160960
C        3.1054562144   -0.4426166280    1.0804035108
C        0.4893721071   -0.9016704667    1.8894118947
C        2.8595696995   -0.7188581567    2.4407434345
C        1.5176571587   -0.9447011236    2.8470793836
C        3.9528406501   -0.7386497734    3.4356488000
C        5.2544893322   -0.9988925713    3.2117394484
C        1.1755076375   -1.3279591474    4.2675863397
C        5.8636128270   -1.6272916029    1.9867068803
H        2.2844501334   -0.1576550028   -0.8901706596
H       -0.0483490726   -0.5884243984   -0.1723700673
H        4.1025532459   -0.2120070459    0.7338477982
H       -0.5347941928   -1.0961390518    2.1857002908
H        3.6875270000   -0.6042299942    4.4773073718
H        5.9055012131   -0.9337021774    4.0767567075
H        1.8344947954   -2.1320814059    4.6106359945
H        1.2840051645   -0.4644264562    4.9297264277
H        0.1465611563   -1.6937794764    4.3359154957
H        6.7231163260   -2.2394972730    2.2757246721
H        5.1426709752   -2.2770959432    1.4810948048
H        6.2123399620   -0.8544193510    1.2955415428
22   

C        2.0677401670   -0.4053668110    0.1450615187
C        0.7577958064   -0.6248023181    0.5562897960
C        3.1064408264   -0.4462528019    1.0769414375
C        0.4907262524   -0.8768606138    1.9009019367
C        2.8641086041   -0.6975869135    2.4429809536
C        1.5213503808   -0.9071512742    2.8565705795
C        3.9580651193   -0.7077045078    3.4381311429
C        5.2327158947   -1.0947516037    3.2469790540
C        1.1802914919   -1.2669178762    4.2835936952
C        5.8574555298   -1.6106930191    1.9790487789
H        2.2811482203   -0.1917095083   -0.8959819114
H       -0.0512342979   -0.5999767513   -0.1648825979
H        4.1015260973   -0.2223059178    0.7215879523
H       -0.5334526785   -1.0617330322    2.2031901381
H        3.6916307465   -0.5540611214    4.4768209968
H        5.8627380979   -1.1186576180    4.1295012769
H        1.8381533824   -2.0667586643    4.6387063296
H        1.2907491605   -0.3931816411    4.9318065963
H        0.1510414210   -1.6305317724    4.3588580843
H        6.7305494695   -2.2232630640    2.2230442696
H        5.1537357446   -2.2383318556    1.4238664126
H        6.1913616959   -0.7787184948    1.3521579853
22   

C        2.0715649520   -0.4841519703    0.1147401259
C        0.7647669331   -0.4483025628    0.5889954075
C        3.0978199243   -0.9540756803    0.9363204774
C        0.4882418885   -0.8889971372    1.8823582487
C        2.8446591691   -1.4084809087    2.2465575105
C        1.5058822266   -1.3789165002    2.7194575356
C        3.9260596001   -1.9396228117    3.1032682177
C        5.2378426250   -1.6446831955    3.0370857067
C        1.1592278105   -1.7692964214    4.1369291044
C        5.8809450618   -0.4963587654    2.3060412440
H        2.2917036260   -0.1576864151   -0.8951703312
H       -0.0345666622   -0.0794272467   -0.0436435548
H        4.0911217801   -1.0069382542    0.5143685079
H       -0.5326611478   -0.8403624647    2.2427924441
H        3.6442619986   -2.5816295061    3.9290600076
H        5.8762146867   -2.1670158221    3.7413373609
H        1.2321816555   -2.8534563299    4.2600722728
H        1.8394250996   -1.2785861832    4.8405593327
H        0.1417511338   -1.4563935795    4.3900241764
H        6.2131966712   -0.8148200960    1.3136489546
H        5.1869290959    0.3444626196    2.2111297826
H        6.7559072934   -0.1488658307    2.8635026427
22   

C        2.0595389039   -0.4927682685    0.1083455588
C        0.7513620452   -0.4527909570    0.5795777698
C        3.0855111689   -0.9452845324    0.9401192354
C        0.4734264365   -0.8693495028    1.8809285510
C        2.8291081864   -1.3790193285    2.2561006250
C        1.4908970213   -1.3406702656    2.7287573652
C        3.9150337739   -1.8907034038    3.1183492119
C        5.2400121978   -1.6998802725    2.9590494615
C        1.1437359088   -1.7097236872    4.1516860411
C        5.9150569331   -0.5078940355    2.3307756808
H        2.2809941087   -0.1817662834   -0.9061386414
H       -0.0479497191   -0.0983155665   -0.0612672187
H        4.0833655810   -0.9960569294    0.5274459726
H       -0.5483281665   -0.8173319435    2.2385071971
H        3.6336633468   -2.5084397131    3.9625344309
H        5.8765272611   -2.2942883729    3.6054682422
H        1.2269696057   -2.7908996409    4.2936056680
H        1.8173919203   -1.2005904271    4.8484352884
H        0.1223135555   -1.4030731707    4.3963451770
H        6.2517314683   -0.7521855691    1.3190353473
H        5.2336182902    0.3476503421    2.2903386016
H        6.7880469239   -0.2205813289    2.9244164231
22   

C        2.0335031719   -0.5066352914    0.0914882886
C        0.7253975621   -0.4741364586    0.5649638942
C        3.0675566537   -0.9233545973    0.9321067481
C        0.4559373556   -0.8589510595    1.8782235304
C        2.8177360668   -1.3290617652    2.2572417952
C        1.4819293826   -1.2925500934    2.7357634829
C        3.9198344465   -1.7996901563    3.1208236859
C        5.2469771090   -1.7224261708    2.8729396210
C        1.1438488610   -1.6348385823    4.1674487102
C        5.9987333743   -0.5274471151    2.3412925180
H        2.2487212773   -0.2155629861   -0.9302162754
H       -0.0804674975   -0.1485590871   -0.0829664119
H        4.0700180193   -0.9605492286    0.5273542843
H       -0.5658077435   -0.8128912567    2.2367002832
H        3.6441626800   -2.3768624042    3.9949094553
H        5.8593226179   -2.3889721832    3.4705530986
H        1.2564651359   -2.7095591280    4.3362708709
H        1.8033900403   -1.0905508310    4.8509246080
H        0.1140137659   -1.3510928427    4.4042501957
H        6.3272542668   -0.7146125886    1.3148093987
H        5.3632763106    0.3636579229    2.3562533896
H        6.8803379524   -0.3343060276    2.9597895033
22   

C        1.9904138718   -0.5222331366    0.0684051624
C        0.6847239872   -0.4948949685    0.5503706871
C        3.0357509013   -0.9001517956    0.9135769966
C        0.4292583353   -0.8428725932    1.8770896247
C        2.7983672414   -1.2711830044    2.2498843775
C        1.4671713931   -1.2351305189    2.7401016255
C        3.9214517437   -1.6985684586    3.1090830210
C        5.2419759419   -1.7308743493    2.7963906330
C        1.1441079208   -1.5472671962    4.1820266313
C        6.1077973731   -0.5631689280    2.3833631955
H        2.1949629371   -0.2553646411   -0.9620535337
H       -0.1302439541   -0.2007847062   -0.1012071118
H        4.0409818762   -0.9265165274    0.5125055004
H       -0.5908119934   -0.8019663310    2.2409704221
H        3.6521398808   -2.2288126422    4.0141348278
H        5.8041658568   -2.4776742710    3.3465952375
H        1.2893832312   -2.6132269762    4.3796892622
H        1.7898579658   -0.9652824264    4.8472706558
H        0.1067353298   -1.2891409871    4.4150929525
H        6.4361148754   -0.6876510697    1.3473864823
H        5.5477530739    0.3735542237    2.4661085156
H        6.9901659355   -0.5010709058    3.0272644221
22   

C        1.9153191944   -0.5710319540    0.0320653617
C        0.6178603160   -0.5414476199    0.5365522891
C        2.9817285194   -0.8887967688    0.8757338657
C        0.3918680112   -0.8250153830    1.8841034094
C        2.7739010709   -1.1922928157    2.2327078900
C        1.4519091470   -1.1524476598    2.7473121466
C        3.9266234170   -1.5531267161    3.0810851179
C        5.2385905003   -1.6996196582    2.7315325726
C        1.1577527972   -1.4123356376    4.2057293405
C        6.2506737079   -0.6176219663    2.4240520013
H        2.0971359126   -0.3512878890   -1.0136733746
H       -0.2138378944   -0.2960083938   -0.1140319493
H        3.9836395805   -0.9136005278    0.4646736689
H       -0.6227957968   -0.7871965736    2.2631525537
H        3.6717249765   -2.0019876968    4.0327986166
H        5.7193301404   -2.5203040555    3.2530873985
H        1.3542461178   -2.4606561775    4.4491604082
H        1.7826303625   -0.7719898537    4.8361798991
H        0.1113353293   -1.1942599478    4.4391251473
H        6.5882508106   -0.7053767224    1.3873188674
H        5.8020778771    0.3705785081    2.5649793400
H        7.1165243194   -0.7078492386    3.0868027093
22   

C        1.8189519521   -0.6208733597   -0.0027529203
C        0.5358764707   -0.5846525413    0.5372664605
C        2.9127885393   -0.8877296151    0.8232847765
C        0.3517606324   -0.8098551366    1.9022603451
C        2.7473863716   -1.1288996072    2.1976765631
C        1.4403306434   -1.0825429695    2.7489129223
C        3.9329503842   -1.4362005917    3.0214303385
C        5.2415866369   -1.6451174488    2.6562640925
C        1.1890911308   -1.2947563776    4.2229966192
C        6.3814341860   -0.6558966561    2.5141390567
H        1.9683344808   -0.4453419124   -1.0619018200
H       -0.3172809531   -0.3803540781   -0.0996047494
H        3.9048582161   -0.9172430766    0.3885871681
H       -0.6527449052   -0.7716259905    2.3074296583
H        3.7077533939   -1.8025884216    4.0147541562
H        5.6329538520   -2.5521664961    3.1044121533
H        1.4337009757   -2.3239457465    4.5024211111
H        1.8010493589   -0.6053018875    4.8128450076
H        0.1396274710   -1.1117300090    4.4721849431
H        6.7611118970   -0.6687356707    1.4884546619
H        6.0338985182    0.3551977385    2.7469049316
H        7.1969401699   -0.9128084343    3.1967850302
