64

C     10.04317   -5.01928    1.63853
C      9.43989   -5.13839    2.89487
C      9.26156   -5.13147    0.48249
C      8.06578   -5.37186    2.99393
C      7.88710   -5.35209    0.58056
C      4.35599   -8.34574   -0.36335
C      6.59215   -8.42635    0.54417
C      4.65594   -9.42861   -1.18813
C      6.88243   -9.51133   -0.28231
C      4.14081   -3.10439    3.94310
C      5.20326   -3.74294    3.37180
C      5.32472   -7.81823    0.50920
C      7.27076   -5.48079    1.83834
C      5.92350  -10.02965   -1.16495
C      4.97576   -6.66986    1.35829
C      5.82442   -5.72390    1.93213
C      2.83704   -3.66870    3.74987
C      3.65557   -5.36435    2.46823
C     -1.14915   -3.38033    7.22112
C     -0.75795   -3.05857    8.66182
C      0.63764   -2.42521    8.54372
C      6.99397  -11.91654   -3.92495
C      7.64471  -11.40501   -2.61146
C      5.64555  -11.31064   -3.45072
C      0.66741   -1.85699    7.11009
C      6.21828  -11.25574   -2.00264
C     -0.46850   -2.66914    4.95837
C      0.49371   -3.55585    4.18495
N      3.65592   -6.43136    1.69113
N      2.59871   -4.74422    3.04042
N      4.97626   -4.88539    2.65724
N     -0.27432   -2.71725    6.39533
N      5.86712  -12.51391   -1.30884
O     -2.08605   -4.08003    6.84771
O      1.82340   -3.00729    4.35094
H     11.11279   -4.84347    1.56055
H     10.04077   -5.06374    3.79760
H      9.72285   -5.04005   -0.49744
H      7.60982   -5.50215    3.97255
H      7.28036   -5.43665   -0.31619
H      3.37003   -7.89209   -0.38045
H      7.35128   -8.06083    1.22764
H      3.89375   -9.81137   -1.86386
H      7.87100   -9.96357   -0.23763
H      4.27020   -2.19600    4.51825
H      6.22759   -3.39579    3.44332
H     -1.50124   -2.35727    9.05880
H     -0.79526   -3.95949    9.27706
H      0.83332   -1.65582    9.29428
H      1.40668   -3.19713    8.64346
H      6.95830  -13.00672   -3.96244
H      7.40566  -11.53375   -4.86263
H      8.32683  -12.08028   -2.08641
H      8.12681  -10.43253   -2.74598
H      5.48246  -10.30775   -3.85528
H      4.74201  -11.91120   -3.59107
H      0.32840   -0.81027    7.07866
H      1.65815   -1.90597    6.65387
H     -0.38029   -1.63235    4.61218
H     -1.48561   -3.01750    4.75623
H      0.24143   -3.57162    3.12018
H      0.47425   -4.58183    4.56002
H      4.87753  -12.48244   -1.05908
H      6.37393  -12.54972   -0.42314
