49

C     -0.40445    1.00028    0.03223
C      0.95213   -5.91495   -3.83295
C      0.59953   -5.30352   -2.62711
C     -1.33544   -0.71449   -1.45711
C     -0.06303   -1.38201    0.51582
C     -0.59792   -0.38182   -0.30946
C     -1.69098   -5.08611   -3.44824
C     -1.53180   -2.05233   -1.80913
C      0.01893   -6.12295   -4.84840
C     -0.71773   -4.90914   -2.45678
C     -0.97299   -3.04209   -0.99437
C     -0.25940   -2.71762    0.17172
C     -1.31374   -5.69714   -4.66106
C     -3.09677   -4.70367   -3.08713
C     -2.32129   -2.38809   -3.05242
C     -1.82489   -8.96257   -6.96867
C     -0.75222  -10.46314   -5.24546
C     -3.29876   -5.10164   -5.95608
C      0.43466   -8.35882   -5.95369
C      0.44327   -6.82681   -6.12171
C     -0.93800   -9.01311   -5.71593
N     -0.24922    2.12322    0.30236
O     -4.00403   -5.49984   -3.00327
O     -1.13861   -4.40240   -1.21670
O     -3.33724   -3.38770   -2.82612
O      0.24923   -3.70062    0.96322
O      1.77547   -6.37041   -6.42137
O     -2.15176   -5.92600   -5.71201
H      1.97754   -6.22311   -4.00739
H      1.32391   -5.14833   -1.83332
H     -1.76296    0.07630   -2.06581
H      0.49597   -1.13508    1.41207
H     -2.86850   -1.50386   -3.38304
H     -1.65934   -2.70184   -3.86429
H     -1.36195   -9.51874   -7.79385
H     -2.80174   -9.41630   -6.76961
H     -2.00079   -7.93650   -7.30078
H     -0.22349  -11.05687   -6.00164
H     -0.17292  -10.51069   -4.31676
H     -1.71959  -10.94347   -5.06313
H     -3.48746   -5.17587   -7.02848
H     -3.09334   -4.05583   -5.70209
H     -4.16566   -5.45775   -5.39805
H      1.10975   -8.59793   -5.12298
H      0.87832   -8.80295   -6.85826
H     -0.23321   -6.53556   -6.93090
H     -1.44781   -8.46506   -4.91453
H     -0.04682   -4.55327    0.59292
H      2.10585   -6.90244   -7.16239
