30   

C        7.4088334641   -5.7624291309    4.4739046734
C        8.5467370338   -9.0765696334    2.0729075002
C        8.9055575907   -8.8682240334    0.7437633833
C        7.5884703289   -8.2561932015    2.6722410289
C        5.8674653139   -6.0692067136    7.1904718685
C        8.3054964945   -7.8363884914    0.0212983478
C        6.7016085332   -6.2892320826    8.2906118391
C        7.2580121219   -3.9501725787    8.3286688249
C        6.9673915206   -7.2087531358    1.9594511942
C        5.7282973243   -4.7839932848    6.6407123360
C        7.4066278413   -5.2309988519    8.8679086331
C        7.3424349804   -7.0021952670    0.6058389096
C        6.4245890344   -3.7100994176    7.2292122564
C        6.1084805353   -5.8316144251    3.8837436596
C        5.9329487567   -6.3757122745    2.6157510687
N        8.4760167566   -5.7347757846    4.9420817159
N        4.8867283367   -4.5576543631    5.5587709923
N        4.9859704252   -5.1565932244    4.4169938229
O        4.7966623889   -6.1701124576    1.9578735073
Cl       8.4516613894   -5.5007714955   10.2400887582
Cl       6.6884574635   -5.6937910420   -0.3633451318
Cl       6.2833475601   -2.0818847066    6.5956214078
H        9.0087620774   -9.8756751711    2.6420497351
H        9.6500664989   -9.5012249378    0.2733103700
H        7.3150533298   -8.4485280641    3.7037332705
H        5.3224710389   -6.8979336557    6.7536062149
H        8.5920804863   -7.6662742110   -1.0100887701
H        6.8069131412   -7.2864297848    8.7016115252
H        7.8023010012   -3.1232475528    8.7681152773
H        4.2291377685   -5.5737145298    2.4801138296
30   

C        7.4340434616   -5.6053752183    4.3806631357
C        8.5207617609   -9.0840182226    2.1412266514
C        8.8646867185   -8.9512804885    0.7991824723
C        7.5767063578   -8.2241998088    2.7063252208
C        6.0073587488   -6.1713644601    7.1478477388
C        8.2649155716   -7.9544514792    0.0298385064
C        6.8705144000   -6.3746068899    8.2282726416
C        7.2418834128   -4.0030848393    8.3698459776
C        6.9519852167   -7.2116089313    1.9467400735
C        5.7573974879   -4.8774443602    6.6620135909
C        7.4970988281   -5.2913648005    8.8479361707
C        7.3157997313   -7.0801969733    0.5778827344
C        6.3766058531   -3.7797818598    7.2916620141
C        6.1170346657   -5.8311998838    3.8741944966
C        5.9375271114   -6.3380708243    2.5859440417
N        8.5160498261   -5.4478743126    4.7842888423
N        4.8776482093   -4.6683942817    5.6072112197
N        4.9677072860   -5.2525121748    4.4580538077
O        4.8528744645   -6.0141993870    1.8923555684
Cl       8.5752550018   -5.5400210826   10.1981909979
Cl       6.6771156579   -5.8189613907   -0.4626455445
Cl       6.0992226344   -2.1404423651    6.7363055591
H        8.9840828824   -9.8547193544    2.7472766565
H        9.5986031410   -9.6147445853    0.3547679735
H        7.3177147450   -8.3587233102    3.7505656635
H        5.5211560205   -7.0195313707    6.6800514983
H        8.5424423767   -7.8419809382   -1.0119053470
H        7.0575253698   -7.3779974052    8.5923280150
H        7.7254654850   -3.1565698439    8.8418807423
H        4.3013823359   -5.4110481235    2.4238082045
30   

C        7.4455351276   -5.4645795599    4.3275162015
C        8.5127425382   -9.1008436127    2.2212799238
C        8.8443204750   -9.0371681823    0.8718103342
C        7.5817402881   -8.2061919709    2.7523996853
C        6.1417159093   -6.2573254437    7.1386691471
C        8.2453914077   -8.0741017199    0.0609229565
C        7.0322914609   -6.4224970337    8.2028543921
C        7.2264641749   -4.0341138467    8.4031732575
C        6.9548644597   -7.2261073505    1.9517590144
C        5.7855483426   -4.9742935673    6.6929892998
C        7.5835216304   -5.3113747332    8.8442898370
C        7.3086516476   -7.1648287409    0.5725011533
C        6.3309651019   -3.8492297000    7.3424682403
C        6.1432556347   -5.8478668214    3.8836756551
C        5.9606342602   -6.3144753670    2.5735965907
N        8.5175244228   -5.1756820639    4.6818015963
N        4.8697576700   -4.8069897131    5.6618475451
N        4.9670099045   -5.3789937578    4.5078772670
O        4.9437916399   -5.8721950354    1.8471299589
Cl       8.6930675539   -5.5129267517   10.1767558206
Cl       6.6810733989   -5.9546610364   -0.5343700999
Cl       5.9235637596   -2.2217983881    6.8341657139
H        8.9762287787   -9.8447282472    2.8598352922
H        9.5686328783   -9.7275080565    0.4533113157
H        7.3359309755   -8.2887504223    3.8051238696
H        5.7123383754   -7.1272569572    6.6555410386
H        8.5148625880   -8.0151303127   -0.9873546946
H        7.2976351277   -7.4180312799    8.5385734815
H        7.6519562563   -3.1659357540    8.8915911366
H        4.4064037428   -5.2616453567    2.3842888803
30   

C        7.4350055742   -5.3207886432    4.2675276226
C        8.4954197988   -9.1136358676    2.2655511491
C        8.8137755833   -9.1145722551    0.9121792788
C        7.5815201047   -8.1842803333    2.7652768766
C        6.2567643512   -6.3252730002    7.1108899513
C        8.2175544026   -8.1820207751    0.0654447172
C        7.1677497474   -6.4446438257    8.1635468969
C        7.1874059694   -4.0526872342    8.4098311207
C        6.9567285087   -7.2308257424    1.9298588605
C        5.7997581007   -5.0643548692    6.6965472553
C        7.6414812371   -5.3084572884    8.8226996458
C        7.2970944541   -7.2380411919    0.5430846998
C        6.2688667050   -3.9142921409    7.3617698443
C        6.1716082716   -5.8533577842    3.8700775049
C        5.9902594090   -6.2756751409    2.5350625248
N        8.4764584347   -4.9056006210    4.5851480818
N        4.8558608438   -4.9483420807    5.6842695571
N        4.9727325035   -5.5036103110    4.5246445331
O        5.0591349430   -5.7133615482    1.7798840878
Cl       8.7740252365   -5.4536173022   10.1430036934
Cl       6.6763652036   -6.0814505088   -0.6241822294
Cl       5.7370372469   -2.3120837581    6.8895963210
H        8.9568329900   -9.8339064773    2.9320709859
H        9.5256520659   -9.8315331123    0.5177696889
H        7.3506118902   -8.2194756643    3.8238953651
H        5.8860093043   -7.2149616077    6.6153976484
H        8.4767424101   -8.1745600597   -0.9870844921
H        7.5078505199   -7.4243324666    8.4776527903
H        7.5530324977   -3.1649895109    8.9115162767
H        4.5384232957   -5.0902117084    2.3186219953
30   

C        7.4209746260   -5.1898542775    4.2369442718
C        8.4370209593   -9.1421834605    2.2860769154
C        8.7335367779   -9.1964551676    0.9295926347
C        7.5573297317   -8.1719125113    2.7685106189
C        6.3807555416   -6.3900580418    7.1084930161
C        8.1469510207   -8.2782224813    0.0616582773
C        7.3129666505   -6.4633776372    8.1463453998
C        7.1788717112   -4.0787855581    8.4270503013
C        6.9449573487   -7.2261598777    1.9134012113
C        5.8334482874   -5.1573748933    6.7212743726
C        7.7201333349   -5.3075350764    8.8156955804
C        7.2596101130   -7.2934778941    0.5197812531
C        6.2367821827   -3.9873644672    7.3948018276
C        6.2083674831   -5.8515453847    3.8791496148
C        6.0295282900   -6.2153145929    2.5129355336
N        8.4203594284   -4.6633679570    4.5228313112
N        4.8625514478   -5.0946663303    5.7307542793
N        4.9984198988   -5.6253059052    4.5624662523
O        5.2064935763   -5.5226940108    1.7432073273
Cl       8.8773129501   -5.3961982979   10.1194345541
Cl       6.6451478261   -6.1762541774   -0.6890913453
Cl       5.5932301583   -2.4178012771    6.9531498006
H        8.8902233173   -9.8520757050    2.9691708617
H        9.4202718958   -9.9445150271    0.5485803007
H        7.3487068487   -8.1692498942    3.8321697041
H        6.0603827366   -7.2952993216    6.6060941084
H        8.3875285976   -8.3149927887   -0.9946898883
H        7.7202482644   -7.4229621641    8.4419302616
H        7.4930474274   -3.1757648563    8.9362177817
H        4.7164139787   -4.8790016522    2.2860792279
30   

C        7.4067228046   -5.0467413213    4.2213712224
C        8.3632472785   -9.1909449555    2.2947702298
C        8.6267493571   -9.3012103250    0.9354796030
C        7.5343705796   -8.1706918527    2.7634443167
C        6.5161594925   -6.4354575153    7.1109417087
C        8.0541201611   -8.3914743662    0.0501989892
C        7.4607225150   -6.4401735781    8.1398517007
C        7.1450406281   -4.0739974663    8.4319708067
C        6.9416027701   -7.2257146156    1.8920298078
C        5.8696596470   -5.2484902739    6.7362152707
C        7.7830091606   -5.2587492695    8.8107821925
C        7.2162069759   -7.3573760806    0.4927329494
C        6.1881469405   -4.0524623571    7.4094757879
C        6.2692662889   -5.8362606944    3.8795692098
C        6.0992000884   -6.1464907901    2.4838271896
N        8.3429488212   -4.4085108760    4.4928247870
N        4.8826654668   -5.2633869865    5.7607743070
N        5.0546835048   -5.7626612313    4.5840750658
O        5.4018599143   -5.3397827690    1.7026473708
Cl       8.9542635428   -5.2628812242   10.1048363569
Cl       6.6043647515   -6.2756909127   -0.7498820875
Cl       5.4204569279   -2.5363378231    6.9799024108
H        8.8043744772   -9.8952673774    2.9914096193
H        9.2758237327  -10.0873221107    0.5652071368
H        7.3567150647   -8.1282469216    3.8316819037
H        6.2606894982   -7.3607505060    6.6078907824
H        8.2660661111   -8.4752158796   -1.0096143376
H        7.9428568136   -7.3667446217    8.4279625574
H        7.3935543362   -3.1511432458    8.9418607657
H        4.9557661836   -4.6629624603    2.2426902064
30   

C        5.9372704288   -7.1171198855    5.0130479338
C        9.3862010993   -7.1012051502    1.5414832433
C        9.2327202110   -7.7579924209    0.3278155832
C        8.2620909557   -6.6920926346    2.2593070331
C        5.6960215434   -4.9870208381    7.6604709669
C        7.9523436112   -7.9939917751   -0.1659336889
C        6.2818545360   -5.4566437020    8.8385356699
C        8.4543917182   -5.2381278820    7.8323659188
C        6.9459093974   -6.9248662397    1.7932811764
C        6.4826229736   -4.6495446301    6.5501778554
C        7.6682833390   -5.5842536910    8.9351988080
C        6.8044705577   -7.5909160538    0.5325881791
C        7.8856605866   -4.7702176989    6.6413307515
C        6.0752307887   -6.0981059409    4.0302329080
C        5.8021410072   -6.4972657289    2.6513144460
N        5.8085979026   -7.9589642160    5.8082482309
N        5.8635667986   -4.1357784464    5.4206678325
N        5.8428518446   -4.7352181453    4.2781071009
O        4.5589541808   -6.6823349599    2.2491925103
Cl       8.4090201752   -6.1510105888   10.4104969932
Cl       5.2674411105   -7.9778257432   -0.2270089200
Cl       8.9388628071   -4.3022937091    5.3202740020
H       10.3786445771   -6.9095962710    1.9344552386
H       10.1024265719   -8.0856736674   -0.2311843000
H        8.4392976942   -6.1863716493    3.2001383770
H        4.6179377545   -4.8869533903    7.5994908375
H        7.8345351122   -8.5083753773   -1.1127804286
H        5.6592853148   -5.7214209502    9.6855969378
H        9.5314280201   -5.3221589879    7.9042254674
H        3.9386741208   -6.3901476393    2.9399694553
30   

C        6.0588896918   -7.0799740361    4.8954892470
C        9.4115909096   -7.2073509165    1.6170248736
C        9.2440158596   -7.9570834437    0.4598720776
C        8.2982050524   -6.6836208146    2.2748802533
C        5.6756711391   -5.1208656278    7.6991677733
C        7.9608056223   -8.1754482924   -0.0355657872
C        6.3655948221   -5.5760975401    8.8251118165
C        8.4501046999   -5.1051709409    7.7241510109
C        6.9808121494   -6.8893089185    1.8011027033
C        6.3647914569   -4.6642284111    6.5670029594
C        7.7608041956   -5.5703646121    8.8478244044
C        6.8241549036   -7.6594102237    0.6043552701
C        7.7767811466   -4.6491152028    6.5837056918
C        6.0720869798   -5.9986020590    3.9689482899
C        5.8487993106   -6.3170070767    2.5849664348
N        6.0435090026   -7.9709567240    5.6462986560
N        5.6325604825   -4.1780896790    5.4931401191
N        5.6522804757   -4.7019211317    4.3136045618
O        4.6222717858   -6.3242527587    2.0889644088
Cl       8.6297266931   -6.1203848458   10.2581671937
Cl       5.2773695796   -8.0583481579   -0.1280942840
Cl       8.7110058669   -4.0301462573    5.2349186715
H       10.4063587132   -7.0305311911    2.0109757281
H       10.1048187138   -8.3723098259   -0.0528374284
H        8.4805142424   -6.1024687433    3.1708005363
H        4.5912181537   -5.1270775618    7.6954032746
H        7.8314839205   -8.7669502425   -0.9346726823
H        5.8170153728   -5.9345264704    9.6887435714
H        9.5325182487   -5.0861583945    7.7398452109
H        4.0041002454   -5.9404947609    2.7358078557
30   

C        6.2060101107   -7.0313569893    4.8434914631
C        9.3978975075   -7.2805277926    1.6344215442
C        9.2001012146   -8.0763413968    0.5126307580
C        8.3049392080   -6.6927571261    2.2724615274
C        5.6389999033   -5.1696393938    7.7255331254
C        7.9072705452   -8.2796739197    0.0347037442
C        6.3887253464   -5.5936449917    8.8249646446
C        8.4062189419   -4.9794444869    7.6714213037
C        6.9807939596   -6.8786085817    1.8115745494
C        6.2635551291   -4.6575089862    6.5798078998
C        7.7807644899   -5.5011064488    8.8076300357
C        6.7915788577   -7.7004003605    0.6569305929
C        7.6726342848   -4.5524329682    6.5567538376
C        6.0559800861   -5.9385720667    3.9407602165
C        5.8717650633   -6.2238300139    2.5594249026
N        6.3324038720   -7.9311007798    5.5731704103
N        5.4652739637   -4.2168592742    5.5325568502
N        5.5047738962   -4.7057917695    4.3378909891
O        4.6772973089   -6.0935130708    2.0034830718
Cl       8.7232926106   -6.0152354526   10.1839403470
Cl       5.2232206101   -8.0936050498   -0.0302527517
Cl       8.5287078790   -3.8637369557    5.1895471644
H       10.4000562188   -7.1164411271    2.0148931143
H       10.0448282272   -8.5398490019    0.0147682262
H        8.5049509999   -6.0733398456    3.1391352714
H        4.5575152600   -5.2455762173    7.7524449032
H        7.7537232859   -8.9092548048   -0.8342037658
H        5.8891964872   -5.9966973625    9.6986368293
H        9.4854793032   -4.8944489490    7.6564214081
H        4.0732915279   -5.6558693450    2.6296206921
30   

C        6.3706007104   -6.9658032570    4.8205047074
C        9.3958363950   -7.3200551273    1.6213514947
C        9.1623216116   -8.1681223531    0.5446114301
C        8.3246130026   -6.6881985252    2.2547113354
C        5.5715644542   -5.2015460090    7.7505282963
C        7.8557339316   -8.3818209790    0.1087790451
C        6.3507652242   -5.5897966368    8.8425403183
C        8.3234659133   -4.8583129538    7.6802239496
C        6.9901262369   -6.8819115995    1.8317017099
C        6.1584145037   -4.6495337846    6.6034933468
C        7.7354294211   -5.4215391425    8.8166312600
C        6.7627740006   -7.7591312523    0.7289258927
C        7.5599472098   -4.4644423474    6.5730576977
C        6.0492721750   -5.8971223467    3.9316857094
C        5.9034578389   -6.1698924152    2.5549107317
N        6.6424220087   -7.8449702409    5.5355677299
N        5.3261915121   -4.2572186443    5.5625871518
N        5.3912825226   -4.7268125591    4.3605011740
O        4.7534202035   -5.9223863732    1.9451245803
Cl       8.7140867714   -5.8950782210   10.1823675473
Cl       5.1678650472   -8.1701157031    0.1188504332
Cl       8.3692143585   -3.7246527514    5.2037158479
H       10.4086111370   -7.1487249746    1.9690540963
H        9.9900172191   -8.6646648806    0.0500094037
H        8.5454466391   -6.0253417417    3.0839393234
H        4.4962256535   -5.3379676878    7.7837342120
H        7.6736889084   -9.0532348790   -0.7224694685
H        5.8800583924   -6.0252240974    9.7166741008
H        9.3966036208   -4.7161959683    7.6585342780
H        4.1602423025   -5.4484946470    2.5554827631
30   

C        6.5039044237   -6.9209392499    4.8000522386
C        9.3992093220   -7.3781789816    1.6022022433
C        9.1307148877   -8.2513067595    0.5530132620
C        8.3509082102   -6.7096157075    2.2368207912
C        5.5168324821   -5.2770575041    7.7676111816
C        7.8122897399   -8.4545096788    0.1470107899
C        6.3258532955   -5.6228808069    8.8520685314
C        8.2400804457   -4.7548950141    7.6860408896
C        7.0075419636   -6.8925461475    1.8410299254
C        6.0593694507   -4.6791654559    6.6219331384
C        7.6966125337   -5.3658597778    8.8200334530
C        6.7434705832   -7.7947738483    0.7704700868
C        7.4458888464   -4.4007588017    6.5867093096
C        6.0368460989   -5.8959649625    3.9230356869
C        5.9411662511   -6.1374189606    2.5459636769
N        6.8981714205   -7.7636530474    5.5020243020
N        5.1953243575   -4.3408121864    5.5874436441
N        5.2851346498   -4.7920526202    4.3792471145
O        4.8602673212   -5.7600487129    1.8765186714
Cl       8.7121561444   -5.7901206469   10.1750851928
Cl       5.1247164696   -8.1880170117    0.2155102008
Cl       8.1982568001   -3.6000713497    5.2189898639
H       10.4211079802   -7.2151701225    1.9263891414
H        9.9405370959   -8.7752073143    0.0570553876
H        8.5935007287   -6.0252079572    3.0424429092
H        4.4529170116   -5.4837454840    7.8050244155
H        7.6023380471   -9.1452264467   -0.6614989123
H        5.8893922428   -6.0954450490    9.7246618191
H        9.3019870121   -4.5451244561    7.6595668205
H        4.2705998218   -5.2644907115    2.4733523773
30   

C        6.6417824224   -6.8402206224    4.8031461460
C        9.4073028283   -7.4066084689    1.5896152068
C        9.0983608651   -8.2999053187    0.5680086395
C        8.3862367221   -6.7029456769    2.2311465098
C        5.4642529348   -5.3518147438    7.8071230184
C        7.7670442026   -8.4877587668    0.1962508422
C        6.2974132767   -5.6516414811    8.8868573473
C        8.1416668348   -4.6298066160    7.7328435115
C        7.0322876931   -6.8730502140    1.8696608469
C        5.9599187707   -4.7011045673    6.6692972543
C        7.6458268658   -5.2954408715    8.8579331680
C        6.7267133845   -7.7921870012    0.8285448636
C        7.3219602899   -4.3185078035    6.6389494428
C        6.0321899392   -5.8753067708    3.9442173457
C        5.9876343418   -6.0835288238    2.5655867613
N        7.1540069822   -7.6324321470    5.4877540558
N        5.0710740335   -4.4188642099    5.6386767045
N        5.1888675578   -4.8488906206    4.4247266305
O        4.9867036294   -5.5830024667    1.8513186224
Cl       8.6915541908   -5.6658377680   10.2058746926
Cl       5.0837303209   -8.1547018261    0.3285867958
Cl       8.0120113354   -3.4463348274    5.2820617481
H       10.4392061174   -7.2548489084    1.8864268558
H        9.8870123726   -8.8504361967    0.0668135717
H        8.6562011267   -6.0016611850    3.0133303543
H        4.4183608911   -5.6362648756    7.8415571005
H        7.5251631872   -9.1924942982   -0.5909137589
H        5.8973982090   -6.1663757837    9.7530026355
H        9.1858063126   -4.3441060950    7.7087667121
H        4.3975178201   -5.0763241593    2.4396085274
30   

C        6.7487598552   -6.7880782302    4.8092849220
C        9.3903835194   -7.4738410862    1.5575136325
C        9.0389126004   -8.3825192787    0.5627416937
C        8.3987886226   -6.7393030611    2.2110688204
C        5.4141980910   -5.4586176723    7.8337402107
C        7.6948765324   -8.5539888845    0.2290136872
C        6.2775444267   -5.6928061447    8.9058751476
C        8.0181095193   -4.5057151369    7.7490497332
C        7.0340248302   -6.8963979728    1.8887130338
C        5.8434296356   -4.7597141239    6.6977790403
C        7.5900784261   -5.2217642062    8.8710910065
C        6.6853227472   -7.8266096862    0.8748994022
C        7.1661917062   -4.2570977267    6.6634010026
C        6.0056774042   -5.9100666458    3.9611116813
C        6.0118548789   -6.0782403188    2.5810984261
N        7.3704149245   -7.5084125474    5.4828066146
N        4.9266608099   -4.5551695705    5.6728564040
N        5.0705446002   -4.9731308879    4.4569154425
O        5.1015829660   -5.4622295959    1.8342575484
Cl       8.6742015426   -5.5140818035   10.2079285903
Cl       5.0199057591   -8.1524965906    0.4291437591
Cl       7.7679150696   -3.3177635225    5.3093257944
H       10.4322704038   -7.3336053683    1.8235466496
H        9.8047155092   -8.9562914361    0.0522740962
H        8.6990476746   -6.0249773562    2.9700534172
H        4.3972729503   -5.8331963071    7.8719456927
H        7.4195784222   -9.2681644962   -0.5383788675
H        5.9294964453   -6.2468003778    9.7701971398
H        9.0339504114   -4.1318463427    7.7204164070
H        4.5075232014   -4.9514984314    2.4143449984
30   

C        6.8955024577   -6.6818074657    4.7914499320
C        9.3838073541   -7.5379182209    1.4749011334
C        8.9755561209   -8.4706482442    0.5242594363
C        8.4330484277   -6.7632467547    2.1431557397
C        5.3680061370   -5.5932043566    7.8164479495
C        7.6160091184   -8.6246958107    0.2480293590
C        6.2388360865   -5.7795502443    8.8919113567
C        7.8719192240   -4.3984051893    7.7949655796
C        7.0546862415   -6.9064578456    1.8800230357
C        5.7413317234   -4.8219324578    6.7082429638
C        7.5021339794   -5.1878092927    8.8882719076
C        6.6485305902   -7.8561221595    0.9100764048
C        7.0103192610   -4.1952096069    6.7072472830
C        6.0229157525   -5.9186130978    3.9547775861
C        6.0666587510   -6.0516126296    2.5735291312
N        7.6230066743   -7.3090051280    5.4522549231
N        4.8228324173   -4.6752029430    5.6752172381
N        5.0061905831   -5.0743205307    4.4575966268
O        5.2483088676   -5.3344237512    1.8103714617
Cl       8.5967780856   -5.4236168310   10.2277662978
Cl       4.9581672795   -8.1418967758    0.5398032452
Cl       7.5335116354   -3.1647041747    5.3875447047
H       10.4379615942   -7.4097267244    1.6947182299
H        9.7096535461   -9.0749716851    0.0025873063
H        8.7750273422   -6.0300210680    2.8655359549
H        4.3903836689   -6.0621043032    7.8293386511
H        7.2963576442   -9.3545801057   -0.4866613987
H        5.9357307823   -6.3910492507    9.7340499960
H        8.8493993684   -3.9324333372    7.7899989313
H        4.6530219338   -4.8165166840    2.3829072928
