25

C      0.76869    8.92533    1.06736
C      0.36967    6.95826   -0.14338
C      0.73632   10.15773    1.92171
C      0.69891    0.38346    0.12577
C      1.06215    1.82278    0.50671
C      0.31170    2.85920   -0.34207
C      0.68296    4.28645    0.05117
N      1.82938    8.52222    0.41172
N      1.59570    7.37806   -0.30167
N      1.91787   10.82621    1.96366
O     -0.28804   10.48868    2.51224
O     -1.74082    5.38672   -0.49009
S     -0.64424    7.92980    0.88150
S     -0.30360    5.48003   -0.96217
H      0.94428    0.17752   -0.92218
H      1.24277   -0.33777    0.74432
H     -0.37269    0.19861    0.25921
H      0.83372    1.99150    1.56661
H      2.14363    1.97245    0.39524
H      0.53880    2.69679   -1.40348
H     -0.76844    2.72185   -0.22069
H      0.44179    4.49789    1.09752
H      1.73554    4.51921   -0.13836
H      1.97370   11.68081    2.50182
H      2.71272   10.49937    1.42792
