51

C      5.22208   -2.97202    2.84608
C      4.19869   -3.86255    2.49608
C      5.64216   -2.00789    1.92610
C      3.60338   -3.78810    1.23564
C      5.03976   -1.93487    0.66412
C     -0.71395   -2.99707    0.15756
C     -2.94076   -2.03340    0.17220
C     -0.16177   -1.73689   -0.11166
C      4.01990   -2.82363    0.30494
C     -2.41446   -0.76806   -0.08919
C     -1.01819   -0.63171   -0.22713
C     -2.08881   -3.13423    0.29702
C      0.58538    3.57863    1.04611
C      0.29711    3.41296   -0.45167
C      0.30850    2.27444    1.80440
C      1.08513    2.23638   -1.04205
C      1.09147    1.09555    1.21160
C      1.66080   -0.21702   -0.90482
C      1.34040   -1.57516   -0.25939
C      0.83652    0.91911   -0.29775
C     -3.30024    0.44480   -0.22591
C      3.36653   -2.74880   -1.06097
N      1.90265   -2.73947   -0.95662
O     -0.57575    0.63551   -0.50514
Cl    -2.77643   -4.72286    0.63509
H      5.68442   -3.02907    3.82823
H      3.86509   -4.61327    3.20827
H      6.43300   -1.31017    2.19023
H      2.79834   -4.46620    0.96525
H      5.36608   -1.17761   -0.04627
H     -0.05440   -3.85374    0.23775
H     -4.01345   -2.16204    0.28294
H     -0.01825    4.39410    1.46118
H      1.63805    3.86357    1.18524
H     -0.77404    3.23724   -0.60130
H      0.54919    4.33119   -0.99467
H      0.56473    2.38482    2.86424
H     -0.76328    2.04798    1.75993
H      0.83167    2.09439   -2.09845
H      2.16029    2.45158   -0.99269
H      2.16881    1.25083    1.35535
H      0.83247    0.17602    1.74475
H      2.72428    0.01407   -0.79312
H      1.44354   -0.26538   -1.97987
H      1.78473   -1.58863    0.74231
H     -3.02420    1.21583    0.50134
H     -3.19730    0.89900   -1.21721
H     -4.34988    0.18174   -0.07221
H      3.77754   -1.88278   -1.60451
H      3.63525   -3.63875   -1.64285
H      1.48976   -2.80951   -1.88539
