29   

C        3.0827052269   -2.8217764611    0.6819547604
C        2.4562064933   -1.6306469351    0.3065483574
C        2.8668667594   -3.3462542209    1.9590023226
C        1.6127141913   -0.9680756265    1.2054324034
C        2.0303222191   -2.6776215741    2.8597795409
C       -0.1577801546   -4.4163265343    5.7023783301
C       -0.0378061283   -5.6847940184    5.1287773005
C       -1.3789467223   -3.6781944028    3.7571921009
C        1.3909331718   -1.4815425091    2.4939293585
C       -0.8177854871   -3.3955234033    5.0109166355
C       -0.5735954431   -5.9594102606    3.8639291188
C       -1.2572369416   -4.9435298152    3.1715616641
C        0.5091501165   -0.7873169015    3.4275816395
C        0.3878060838   -0.8933446838    4.8032310948
O       -2.2147129200   -1.0958374575    5.3467199870
O       -0.6358782381   -1.7070314072    7.1429277354
S       -0.9261336337   -1.7117408648    5.7003690675
Cl      -0.3814514720   -7.5553547464    3.1717875143
Cl      -1.9481164927   -5.2292638443    1.5887382830
H        3.7341588520   -3.3369606730   -0.0152645585
H        2.6243406277   -1.2187287204   -0.6822495842
H        3.3478040389   -4.2725094315    2.2524510949
H        1.1360377250   -0.0441014218    0.8968968453
H        1.8731014696   -3.0985998898    3.8462259128
H        0.2668174411   -4.2216913867    6.6844987393
H        0.4794517640   -6.4709367971    5.6662039695
H       -1.9105163879   -2.9003390383    3.2159926332
H       -0.1565881552   -0.0573146696    2.9776438881
H        1.1752148452   -0.5066620337    5.4305159053
29   

C        2.8590951838   -3.1018706415    0.8812151516
C        2.1717363666   -1.9875989573    0.3940705691
C        2.8006567743   -3.4115732667    2.2421093555
C        1.4214445566   -1.1897934970    1.2652053688
C        2.0565745045   -2.6081440145    3.1130833967
C       -0.0688373599   -4.3959123303    5.5513960098
C        0.1165803214   -5.6109793839    4.8865605446
C       -1.2398923543   -3.5466473310    3.6209993909
C        1.3501342919   -1.4909951026    2.6357523453
C       -0.7338071500   -3.3440517138    4.9132721568
C       -0.3570810008   -5.8005181703    3.5818401450
C       -1.0493435817   -4.7559300107    2.9432771130
C        0.5415697750   -0.6668667387    3.5329816962
C        0.3628656861   -0.7591282830    4.8918645275
O       -2.2272578105   -1.1359460086    5.4094074355
O       -0.6265052579   -1.8002143134    7.1584484248
S       -0.9112073709   -1.7173103522    5.7170195953
Cl      -0.0763062442   -7.3270207827    2.7733891925
Cl      -1.6611679997   -4.9340006000    1.3129106065
H        3.4361436589   -3.7235036947    0.2055761401
H        2.2177400806   -1.7421901088   -0.6610750124
H        3.3314320367   -4.2762729083    2.6239462785
H        0.8911905341   -0.3322583033    0.8658672142
H        2.0251171649   -2.8635183189    4.1657591915
H        0.3117789086   -4.2653278736    6.5616777398
H        0.6393376094   -6.4205077303    5.3821202172
H       -1.7747189843   -2.7452588210    3.1191690074
H        0.0257322693    0.1666549190    3.0666942603
H        0.9933016972   -0.1872568154    5.5544848078
29   

C        2.7120147564   -3.3434695311    1.1798714472
C        1.8923321365   -2.3840004373    0.5806990598
C        2.8503927438   -3.3662743831    2.5695745833
C        1.2052678137   -1.4554541527    1.3707444328
C        2.1644722804   -2.4359222489    3.3579060973
C        0.0650830408   -4.3429340280    5.2748550867
C        0.2757240682   -5.4849308373    4.4976240301
C       -1.2183866524   -3.3827416938    3.4726428011
C        1.3233561206   -1.4752888117    2.7703028578
C       -0.6665667432   -3.2693974434    4.7570397314
C       -0.2372447968   -5.5786056783    3.1974731263
C       -1.0000505613   -4.5158296780    2.6811772638
C        0.5569883417   -0.5315974344    3.5915111066
C        0.3097579057   -0.6052979790    4.9287815607
O       -2.2253469259   -1.1870821109    5.5220509784
O       -0.5132977061   -1.9181699389    7.1198082958
S       -0.8679583327   -1.7244330323    5.7045950168
Cl       0.0843427981   -7.0091660053    2.2422861110
Cl      -1.6615966486   -4.5743847003    1.0616257509
H        3.2391095643   -4.0673781188    0.5683399712
H        1.7843085759   -2.3627646918   -0.4979560876
H        3.4869870296   -4.1079386669    3.0383170466
H        0.5658315521   -0.7252169018    0.8872733937
H        2.2819699273   -2.4692195268    4.4351019834
H        0.4805566108   -4.2838144570    6.2778889739
H        0.8521406008   -6.3096641780    4.8993423430
H       -1.8061564657   -2.5655253352    3.0649126882
H        0.1760531750    0.3499187184    3.0855890770
H        0.7155879504    0.1410900973    5.5937758937
29   

C        2.6382669906   -3.4113739318    1.2929131930
C        1.8106734631   -2.4793309341    0.6620273657
C        2.8055626194   -3.3635199850    2.6789215482
C        1.1440172572   -1.5080312545    1.4173356431
C        2.1387040095   -2.3913047476    3.4325417081
C        0.0752058993   -4.3634670215    5.1654352709
C        0.2890142426   -5.4890267627    4.3659785341
C       -1.2221051875   -3.3755576287    3.3884119141
C        1.2882190430   -1.4597054698    2.8135285382
C       -0.6650024048   -3.2838516318    4.6720933512
C       -0.2290984438   -5.5605049090    3.0667373014
C       -1.0001598502   -4.4921931749    2.5742510978
C        0.5491190935   -0.4630326373    3.6015159598
C        0.1777163589   -0.5370859577    4.9009296734
O       -2.2813363478   -1.3052594796    5.5728518873
O       -0.4672706257   -1.9894003881    7.0582404717
S       -0.8888016516   -1.7705383933    5.6650201126
Cl       0.0954101784   -6.9713670233    2.0836911617
Cl      -1.6695252463   -4.5247853598    0.9572550605
H        3.1496469106   -4.1682436910    0.7085558731
H        1.6810192079   -2.5123676933   -0.4139482589
H        3.4497350062   -4.0826258640    3.1717866606
H        0.4990474135   -0.7984019217    0.9110493816
H        2.2783426707   -2.3669537975    4.5075620996
H        0.4925882927   -4.3228690040    6.1686123809
H        0.8708653481   -6.3182210403    4.7502657916
H       -1.8185207560   -2.5552077614    3.0004494410
H        0.3115879088    0.4649772378    3.0910986930
H        0.3764527736    0.3019538229    5.5498044828
29   

C        3.1676281965   -3.5335002082    1.9164515449
C        2.1346857469   -3.0608703537    1.1022456039
C        3.3179348996   -3.0277745059    3.2103976122
C        1.2533944786   -2.0849798603    1.5815565057
C        2.4330820428   -2.0560857817    3.6901996248
C        0.1844729120   -4.2670164458    4.4959980678
C        0.0639225476   -5.2717892715    3.5352636793
C       -1.7897097775   -3.2033012926    3.6098537004
C        1.3863902772   -1.5765131221    2.8832335265
C       -0.7304771069   -3.2087749402    4.5275246632
C       -0.9713040483   -5.2471742036    2.5941900611
C       -1.9149123911   -4.2037433173    2.6369086676
C        0.4412454624   -0.5694488990    3.3935683275
C        0.0186328725   -0.4506164304    4.6670491825
O       -1.7869011322   -1.4782655828    6.3419364098
O        0.5428842571   -2.1439679054    6.6846470621
S       -0.5093428163   -1.8299401467    5.7032337407
Cl      -1.0653898525   -6.5072051732    1.3833748466
Cl      -3.2294707989   -4.1241771245    1.4842297695
H        3.8518528380   -4.2879858916    1.5443653354
H        2.0144351351   -3.4520449583    0.0981824230
H        4.1207894010   -3.3863509643    3.8449384453
H        0.4527296697   -1.7345203001    0.9397675458
H        2.5625595089   -1.6732947063    4.6979052873
H        1.0070138537   -4.2955239317    5.2062740385
H        0.7898106544   -6.0756120080    3.5078827154
H       -2.5198077718   -2.3996849963    3.6349546777
H        0.0786674707    0.1633506636    2.6798944225
H       -0.2208439933    0.5207273741    5.0716793962
29   

C        3.1550888905   -3.5512656592    1.9810164113
C        2.1279868845   -3.0791727699    1.1590188028
C        3.3192349574   -3.0177773534    3.2622142924
C        1.2667928045   -2.0759092838    1.6178650907
C        2.4538044941   -2.0190357403    3.7216508993
C        0.1934857914   -4.2719060800    4.4211933682
C        0.0502136655   -5.2760190413    3.4630666471
C       -1.7967782379   -3.2032890287    3.5785762794
C        1.4135482124   -1.5401628956    2.9068730432
C       -0.7191494739   -3.2124708552    4.4743657564
C       -1.0054395480   -5.2492399956    2.5451883672
C       -1.9451645218   -4.2032752497    2.6082232713
C        0.4914195913   -0.4965766593    3.3940130478
C       -0.0667401049   -0.4280106557    4.6129763685
O       -1.7228846417   -1.5483084085    6.3760031028
O        0.6447423823   -2.1316037714    6.5668215975
S       -0.4748764917   -1.8412608197    5.6546260127
Cl      -1.1297092454   -6.5100583372    1.3378954360
Cl      -3.2847172426   -4.1211442270    1.4848674006
H        3.8242185657   -4.3266136340    1.6247296863
H        1.9967832350   -3.4915443299    0.1648609365
H        4.1176783620   -3.3754140922    3.9028470290
H        0.4706572052   -1.7245775961    0.9709166501
H        2.5936060011   -1.6136847264    4.7191671602
H        1.0310523173   -4.3027092550    5.1135886693
H        0.7736589995   -6.0813601471    3.4202575980
H       -2.5246411701   -2.3984379259    3.6196629892
H        0.2409551465    0.2912465157    2.6908655036
H       -0.4490033752    0.5117078837    4.9811622051
29   

C        3.1275454735   -3.5690882592    2.0182219709
C        2.1011040972   -3.0816187873    1.2043158804
C        3.3179944615   -3.0291726392    3.2932610959
C        1.2674584791   -2.0562505166    1.6649957432
C        2.4794472184   -2.0084004802    3.7545461418
C        0.2038611479   -4.2807691374    4.4060243216
C        0.0623961143   -5.2908434450    3.4538751710
C       -1.7950677708   -3.2274159952    3.5651562353
C        1.4412729649   -1.5138681593    2.9476182170
C       -0.7148685750   -3.2266638160    4.4578216882
C       -0.9969870432   -5.2748750855    2.5400595576
C       -1.9417548843   -4.2333557865    2.6007124347
C        0.5488647022   -0.4412576017    3.4356859218
C       -0.1477296657   -0.4286973687    4.5801756972
O       -1.7123629932   -1.5978013308    6.3909951157
O        0.6770606119   -2.1087190025    6.5122447793
S       -0.4769931785   -1.8506471920    5.6335721607
Cl      -1.1196476186   -6.5434442759    1.3407366876
Cl      -3.2860679950   -4.1645008230    1.4821196269
H        3.7755931550   -4.3614449114    1.6604226399
H        1.9490159946   -3.4988900748    0.2151895931
H        4.1157993594   -3.3989888427    3.9277218440
H        0.4715577927   -1.6916819175    1.0250954531
H        2.6378603601   -1.5978390177    4.7471444766
H        1.0441235964   -4.3032164280    5.0954294907
H        0.7899491169   -6.0925374386    3.4128165986
H       -2.5269637646   -2.4262069551    3.6042593352
H        0.4157613280    0.4062851198    2.7710156768
H       -0.6433725447    0.4750207280    4.9002751542
29   

C        1.9928730689   -3.0252059197    0.8731586852
C        1.0935190995   -1.9554373043    0.8724860567
C        2.7093703044   -3.3292438963    2.0339466345
C        0.9065083383   -1.1963656014    2.0330742979
C        2.5253165916   -2.5652529722    3.1919352823
C       -0.2613140378   -3.9911831205    5.4253914202
C        0.1591486315   -5.2871871892    5.1152470905
C       -0.9293431364   -3.6838071002    3.1294512834
C        1.6157291648   -1.4970033359    3.2072990660
C       -0.7924931524   -3.1691113308    4.4270374254
C        0.0484324072   -5.7902037335    3.8127400337
C       -0.5109442108   -4.9802037528    2.8085562311
C        1.4060280251   -0.7056417971    4.4417799888
C        0.2770703249   -0.6177839738    5.1553639018
O       -1.9173772965   -0.8274972546    3.6143653996
O       -2.1290624005   -1.3929728631    5.9856328134
S       -1.2765517802   -1.4461422823    4.7877277856
Cl       0.6083907996   -7.4105996991    3.4611969799
Cl      -0.6804343316   -5.5580288543    1.1646400471
H        2.1321376777   -3.6191843315   -0.0233614196
H        0.5360647316   -1.7148241742   -0.0259202628
H        3.4048846488   -4.1608936861    2.0377921886
H        0.2008870647   -0.3711991826    2.0219831590
H        3.0821147187   -2.8154118765    4.0879218392
H       -0.1656108015   -3.6186365788    6.4415792652
H        0.5813283302   -5.9156567516    5.8902975025
H       -1.3525399800   -3.0622264341    2.3453300935
H        2.2839949806   -0.2113159765    4.8449791315
H        0.2489405820   -0.0136746900    6.0492078474
29   

C        2.0057653560   -3.0173924939    0.8419724220
C        1.0979115504   -1.9558121193    0.8806078535
C        2.7348404793   -3.3493040908    1.9870935475
C        0.9140696628   -1.2336620765    2.0648335699
C        2.5536301001   -2.6225681134    3.1693476357
C       -0.2805135955   -3.9696316639    5.4410487445
C        0.1473538284   -5.2671428070    5.1476986184
C       -0.9388855247   -3.6916686049    3.1384765400
C        1.6336162947   -1.5642902764    3.2254498053
C       -0.8098026431   -3.1611950435    4.4305813424
C        0.0461856931   -5.7851177767    3.8502532501
C       -0.5120412426   -4.9892405104    2.8342147159
C        1.4256990953   -0.8172853644    4.4828525855
C        0.2570139186   -0.5880982184    5.0975551352
O       -1.9576671155   -0.8389655080    3.5930995083
O       -2.1332874310   -1.3617551255    5.9757237160
S       -1.2969987932   -1.4340557103    4.7674585603
Cl       0.6167801443   -7.4061851540    3.5195404687
Cl      -0.6686585148   -5.5854770807    1.1956500874
H        2.1427328153   -3.5826502581   -0.0732722460
H        0.5317771579   -1.6922472668   -0.0058778141
H        3.4381155762   -4.1739662933    1.9597911688
H        0.2036313005   -0.4127878359    2.0810521973
H        3.1206814436   -2.8957695316    4.0520526307
H       -0.1913112397   -3.5848920414    6.4533144947
H        0.5685191627   -5.8849076262    5.9318571701
H       -1.3609143511   -3.0811028396    2.3450939790
H        2.3212775243   -0.4528068267    4.9756306502
H        0.2095176871    0.1023870083    5.9256340441
29   

C        2.0453032886   -3.0038575928    0.8246764157
C        1.1183174270   -1.9601389763    0.8842512508
C        2.7783663173   -3.3470041207    1.9638626529
C        0.9191302913   -1.2673878609    2.0833173349
C        2.5815601776   -2.6500562563    3.1615218230
C       -0.2971792982   -3.9446278615    5.4543636185
C        0.1415891741   -5.2391449070    5.1637568126
C       -0.9603768115   -3.6783294425    3.1516711299
C        1.6419007246   -1.6102842881    3.2391436890
C       -0.8334215739   -3.1430156509    4.4420670584
C        0.0447799336   -5.7607678477    3.8673919531
C       -0.5214889104   -4.9723922245    2.8499678068
C        1.4140846867   -0.9000541771    4.5103590949
C        0.2256777130   -0.5425296280    5.0241797964
O       -2.0413364358   -0.8476697990    3.6165170521
O       -2.1177194523   -1.3336856408    6.0120086753
S       -1.3288064744   -1.4169174453    4.7729807657
Cl       0.6309497874   -7.3768663419    3.5396485366
Cl      -0.6722574067   -5.5729454058    1.2124656400
H        2.1943675616   -3.5462115933   -0.1024556177
H        0.5494186016   -1.6875490774    0.0022641741
H        3.4969880974   -4.1575963635    1.9198567156
H        0.1939018609   -0.4599711657    2.1140985901
H        3.1520641116   -2.9333648228    4.0387754947
H       -0.2105547913   -3.5564364530    6.4655992671
H        0.5685569114   -5.8514873000    5.9490294283
H       -1.3885807780   -3.0736327452    2.3570721542
H        2.2985719259   -0.6429210201    5.0841699196
H        0.1706806892    0.2412446841    5.7640158632
29   

C        2.1003443836   -3.0168069137    0.8191546265
C        1.1516026253   -1.9931033718    0.8805271596
C        2.8265246072   -3.3596350303    1.9627823493
C        0.9240216258   -1.3199646996    2.0855994953
C        2.6009660205   -2.6828106022    3.1669457962
C       -0.3175179328   -3.9388470886    5.4486061220
C        0.1290570516   -5.2254206629    5.1358109528
C       -1.0181113994   -3.6511706965    3.1594160622
C        1.6397857365   -1.6628277964    3.2464335943
C       -0.8751925063   -3.1298422742    4.4537955933
C        0.0191282123   -5.7316432634    3.8344005516
C       -0.5702878650   -4.9367502527    2.8352713871
C        1.3773105948   -0.9788394459    4.5233383938
C        0.1853130969   -0.5072739618    4.9364785143
O       -2.1748883266   -0.8581036578    3.7068749555
O       -2.0681294076   -1.3280113738    6.1052085058
S       -1.3724491886   -1.4097516955    4.8113919302
Cl       0.6184161726   -7.3367303203    3.4776655603
Cl      -0.7373030634   -5.5179057202    1.1924124056
H        2.2716261685   -3.5438042318   -0.1129775248
H        0.5879563624   -1.7211981958   -0.0050248018
H        3.5622041133   -4.1546780702    1.9170447989
H        0.1812797868   -0.5287099868    2.1170135553
H        3.1664657672   -2.9671365672    4.0470748797
H       -0.2195176446   -3.5617311782    6.4630973216
H        0.5733202489   -5.8430987637    5.9071955222
H       -1.4640225936   -3.0410556223    2.3788140722
H        2.2311490244   -0.8112294398    5.1718001125
H        0.1349037427    0.3735267236    5.5579115284
29   

C        2.2158781861   -3.0961038004    0.8618750416
C        1.2205830740   -2.1160678103    0.8822832082
C        2.9343374130   -3.3799122003    2.0262823472
C        0.9393493564   -1.4276181533    2.0671991565
C        2.6538108491   -2.6887921555    3.2106596628
C       -0.2941879554   -3.9446428776    5.4072904262
C        0.1523955914   -5.2095376157    5.0172699851
C       -1.1470711711   -3.5832978795    3.1808379290
C        1.6462131362   -1.7119363057    3.2490636939
C       -0.9270210265   -3.1086544216    4.4818919895
C       -0.0313170032   -5.6671891571    3.7064293813
C       -0.6982137706   -4.8467414716    2.7788667998
C        1.3243839411   -1.0170007913    4.5043598840
C        0.1282838398   -0.4729685229    4.8271813230
O       -2.3860237343   -0.8648030028    3.9773974545
O       -1.8970996202   -1.3595443346    6.3247503765
S       -1.4112127850   -1.4088173065    4.9367836589
Cl       0.5746079956   -7.2439882338    3.2490902367
Cl      -0.9578782279   -5.3676007757    1.1279724665
H        2.4294639295   -3.6344958545   -0.0548763496
H        0.6628289138   -1.8906322339   -0.0198337577
H        3.7070904715   -4.1402029423    2.0119166863
H        0.1615432109   -0.6706682597    2.0668236541
H        3.2146331763   -2.9280427266    4.1070185026
H       -0.1360561391   -3.6034608161    6.4270662833
H        0.6560456406   -5.8468785511    5.7342610217
H       -1.6527600973   -2.9521573212    2.4554312878
H        2.1359578266   -0.8843241337    5.2124337037
H        0.0774712540    0.5156334150    5.2565472432
29   

C        2.6768855996   -3.3423319372    1.2095421396
C        1.4368507917   -2.7069200752    1.1134749541
C        3.4645969971   -3.1561124192    2.3483158349
C        0.9842145595   -1.8917880721    2.1564745431
C        3.0071164373   -2.3453875382    3.3936329688
C       -0.1473333267   -3.9494876450    4.9854868231
C        0.1562949786   -5.1446001715    4.3319617671
C       -1.7286372826   -3.4165892337    3.2437401486
C        1.7560300269   -1.7111318615    3.3170730880
C       -1.0746270786   -3.0603834978    4.4313199143
C       -0.4658141182   -5.4829510974    3.1248549303
C       -1.4284656503   -4.6131227592    2.5792954393
C        1.2673555624   -0.8976570741    4.4350585254
C        0.0007845896   -0.4420834512    4.6481393599
O       -2.6472965977   -0.8558687944    4.7481408276
O       -1.3129568701   -1.5648630606    6.6815653016
S       -1.3825302856   -1.4441575034    5.2166551981
Cl      -0.0301925629   -6.9742787506    2.3194622751
Cl      -2.2402242673   -4.9902563530    1.0755630587
H        3.0269054724   -3.9755612974    0.4017917834
H        0.8226343008   -2.8469282004    0.2309567894
H        4.4303160333   -3.6433566916    2.4227082792
H        0.0212819756   -1.4028355415    2.0619074444
H        3.6294653427   -2.2192128613    4.2725527727
H        0.3542450847   -3.6998917440    5.9168426901
H        0.8921136905   -5.8169615574    4.7567456959
H       -2.4687936665   -2.7468631060    2.8143918484
H        2.0119421561   -0.5759109459    5.1561820273
H       -0.2004719829    0.6176918347    4.6276860015
29   

C        3.0106095655   -3.2112060550    1.1642708078
C        1.6684301112   -2.8281255387    1.1084051940
C        3.7865660610   -2.8578809758    2.2710530492
C        1.1046997630   -2.0933488422    2.1570323911
C        3.2185858926   -2.1300609014    3.3230325093
C       -0.2837881956   -3.9985069331    4.9701371560
C       -0.1003187220   -5.2144135805    4.3105058829
C       -1.9591146448   -3.3868321404    3.3459298716
C        1.8688635228   -1.7415967136    3.2828036226
C       -1.2007461850   -3.0626480491    4.4792514908
C       -0.8324374613   -5.5261963405    3.1592912893
C       -1.7799009090   -4.6043586527    2.6756095938
C        1.2769913305   -1.0028857039    4.3975854594
C       -0.0020855130   -0.5246148487    4.5430945662
O       -2.6424681669   -0.7913285555    4.9279851089
O       -1.1428593551   -1.5483889073    6.7284072288
S       -1.3654795570   -1.4326158144    5.2783610517
Cl      -0.5520517366   -7.0505763814    2.3465872042
Cl      -2.7258061233   -4.9465765231    1.2435751091
H        3.4485159988   -3.7787014874    0.3505373349
H        1.0618576576   -3.0998889052    0.2516945488
H        4.8300725994   -3.1491225946    2.3150555068
H        0.0634035514   -1.8006130625    2.0918625849
H        3.8368519459   -1.8688894018    4.1747768866
H        0.2999726714   -3.7726729250    5.8589037443
H        0.6248608112   -5.9257131710    4.6879894802
H       -2.6910790857   -2.6788624021    2.9663904650
H        1.9466153790   -0.7688145257    5.2190986343
H       -0.2405471612    0.4817137168    4.2365116165
29   

C        3.4365643624   -2.9927934152    1.0959598257
C        2.0396935347   -2.9567241895    1.1024617929
C        4.1499058863   -2.4213813219    2.1529095824
C        1.3587889808   -2.3455566996    2.1612158977
C        3.4670337985   -1.8184140568    3.2154138439
C       -0.4925066933   -4.1049197507    4.9853496954
C       -0.4781973183   -5.3502666278    4.3554546518
C       -2.1912447190   -3.3611521114    3.4422378797
C        2.0632571542   -1.7704198418    3.2319095748
C       -1.3390987518   -3.0920238169    4.5221624911
C       -1.3104549864   -5.6133218618    3.2612524895
C       -2.1822816074   -4.6078827066    2.8024394826
C        1.3546585436   -1.1353721192    4.3402092845
C        0.0527815110   -0.6746322947    4.4313703258
O       -2.5565887754   -0.7082953198    5.0329120412
O       -0.9771408538   -1.5576836547    6.7277587877
S       -1.3104751745   -1.4436780373    5.2988724073
Cl      -1.2486586561   -7.1827974819    2.4891738575
Cl      -3.2481494689   -4.8858871080    1.4423705989
H        3.9650157711   -3.4610201900    0.2728682325
H        1.4818908010   -3.4013265960    0.2858259602
H        5.2339734471   -2.4429846971    2.1486210203
H        0.2750996734   -2.3253236605    2.1492841640
H        4.0373380037   -1.3770143614    4.0253866341
H        0.1622204698   -3.9208053321    5.8336152075
H        0.1884454950   -6.1256921226    4.7145561304
H       -2.8695134677   -2.5905825978    3.0851544244
H        1.9435959023   -0.9849353513    5.2395927534
H       -0.2250336990    0.2112756092    3.8825654037
