18   

C        4.6331447716    1.3459819996    0.7538079407
C        5.8139803776    1.1162952566    0.0578183140
C        3.5008874128    0.5758692131    0.4819786556
C        5.8525054865    0.1176467790   -0.9130161269
C        3.5148812075   -0.4449182471   -0.4880718959
C        4.7242939054   -0.6614729637   -1.1988874257
C        2.2836726517   -1.2595635898   -0.7409971179
C        0.9255007017   -0.7891924349   -0.2312300854
O        2.3102354744   -2.3131859061   -1.3628699842
O        4.8394342461   -1.6000777296   -2.1828133013
H        4.5933062606    2.1217249561    1.5103671330
H        6.6964123779    1.7113188425    0.2676874043
H        2.6063438411    0.7855634306    1.0569203334
H        6.7761960115   -0.0469878273   -1.4536928986
H        0.7671454408    0.2587044534   -0.4993664090
H        0.8757798275   -0.9036360193    0.8546789168
H        0.1296825123   -1.3873263202   -0.6845497263
H        5.7506789932   -1.6457156470   -2.5119645693
18   

C        4.6560638619    1.3455166269    0.7980690804
C        5.8086858363    1.1620017056    0.0407307009
C        3.5350944513    0.5453601376    0.5677991315
C        5.8294630875    0.1815079794   -0.9508192531
C        3.5390812337   -0.4554416673   -0.4197620245
C        4.7108080920   -0.6248060512   -1.1942324532
C        2.3294741382   -1.3189268933   -0.6179731070
C        0.9406350620   -0.7749745324   -0.3058590577
O        2.4123600260   -2.4711546229   -1.0185709282
O        4.7845923509   -1.5398944646   -2.2040265692
H        4.6309692191    2.1060897780    1.5704721608
H        6.6827633912    1.7791911682    0.2191329226
H        2.6587976190    0.7057106179    1.1858921871
H        6.7285796297    0.0543893593   -1.5407723467
H        0.8586375099    0.2596621971   -0.6493937110
H        0.7582849107   -0.8183929067    0.7709150123
H        0.1829508245   -1.3739084868   -0.8191861632
H        5.6888485561   -1.5977716071   -2.5508356423
18   

C        4.7235941954    1.2901016364    0.8579402668
C        5.8289317164    1.1404507421    0.0240313771
C        3.5968832321    0.4855203685    0.6732469358
C        5.7967767552    0.1891709016   -0.9967992976
C        3.5526894013   -0.4797736068   -0.3443829146
C        4.6706945705   -0.6192869768   -1.1921964746
C        2.3474367075   -1.3659700565   -0.4960315700
C        0.9502050562   -0.7750109197   -0.3658676210
O        2.4567350047   -2.5681761037   -0.6810882383
O        4.6740734134   -1.5110817764   -2.2253541035
H        4.7407948221    2.0260692266    1.6540049032
H        6.7074608784    1.7605334467    0.1669321117
H        2.7546212689    0.6093406367    1.3450347534
H        6.6580598857    0.0868027923   -1.6451103013
H        0.8938586183    0.1645270202   -0.9220556800
H        0.7196620703   -0.5888040471    0.6858917794
H        0.2120117546   -1.4706270548   -0.7750051687
H        5.5609352134   -1.5831220370   -2.6129829597
18   

C        4.7769486954    1.2316898713    0.9525243365
C        5.8307841540    1.1372227456    0.0451187683
C        3.6523811039    0.4162228940    0.8024124374
C        5.7505193397    0.2284549802   -1.0123752021
C        3.5638512259   -0.4991184923   -0.2538192506
C        4.6257709648   -0.5893236671   -1.1707181461
C        2.3643005783   -1.4049516050   -0.3769963154
C        0.9632054977   -0.8087416190   -0.4043727696
O        2.4840695210   -2.6188476484   -0.3551165292
O        4.5691857709   -1.4487294563   -2.2295018997
H        4.8335784395    1.9317307254    1.7785793031
H        6.7073442233    1.7656257143    0.1611750584
H        2.8511627160    0.4895495138    1.5296227134
H        6.5718840887    0.1660663741   -1.7152608482
H        0.7941955010   -0.3286309238   -1.3718621138
H        0.8458785494   -0.0658488593    0.3876240061
H        0.2178231031   -1.5966051603   -0.2637884566
H        5.4325684632   -1.5043501145   -2.6701566145
18   

C        4.8386140561    1.1837925419    1.0317940704
C        5.8390958972    1.1234916310    0.0621943808
C        3.7104653072    0.3667376636    0.9204153735
C        5.7019907721    0.2467047192   -1.0169803695
C        3.5680907327   -0.5143591444   -0.1557819405
C        4.5729062027   -0.5718504214   -1.1338442386
C        2.3581691156   -1.4159331338   -0.2556184048
C        0.9906920662   -0.8060787841   -0.5244765248
O        2.4380934431   -2.6069932263   -0.0090216900
O        4.4534945967   -1.4055201979   -2.2079736240
H        4.9387958125    1.8590213256    1.8741860831
H        6.7179859882    1.7536246592    0.1470055591
H        2.9441489043    0.4108464684    1.6870780698
H        6.4817472867    0.2099417517   -1.7674526240
H        0.9022886914   -0.5742903665   -1.5891713107
H        0.8686455041    0.1144274965    0.0516129345
H        0.2026540177   -1.5106885098   -0.2446327390
H        5.2843961145   -1.4337646792   -2.7101564878
18   

C        4.9142375445    1.1369581212    1.1193403596
C        5.8512077173    1.1056314879    0.0868157762
C        3.7790521339    0.3245279131    1.0545416343
C        5.6429479205    0.2631452868   -1.0082861759
C        3.5701342767   -0.5278990587   -0.0328433599
C        4.5065780043   -0.5506208276   -1.0771560380
C        2.3326806703   -1.3957109205   -0.1114142168
C        1.0784383410   -0.8460169428   -0.7723212919
O        2.3184521221   -2.5209620057    0.3569035494
O        4.3134683201   -1.3498007234   -2.1669291666
H        5.0674410619    1.7880045722    1.9727153162
H        6.7346564356    1.7332985294    0.1344163871
H        3.0568442703    0.3492440792    1.8638793285
H        6.3723034705    0.2506597037   -1.8085838012
H        1.2779994474   -0.6567858260   -1.8303906661
H        0.7866788931    0.0903336991   -0.2900622479
H        0.2598379074   -1.5659176650   -0.6856028279
H        5.1000046107   -1.3407364617   -2.7372577346
18   

C        4.9701343584    1.0774981666    1.1664796481
C        5.8557282150    1.0796119842    0.0891872303
C        3.8243295764    0.2788919426    1.1243309099
C        5.5868184354    0.2831117011   -1.0270727350
C        3.5543983572   -0.5279086104    0.0145702431
C        4.4400091526   -0.5176841576   -1.0743530202
C        2.2910481144   -1.3567723676   -0.0306313630
C        1.1372449249   -0.9254238183   -0.9243239396
O        2.1822206524   -2.3746476185    0.6332516641
O        4.1962961714   -1.2792594501   -2.1808042054
H        5.1704976136    1.6925952785    2.0365925577
H        6.7469645945    1.6972862608    0.1191665299
H        3.1399409488    0.2782929730    1.9664921773
H        6.2787344707    0.2954579463   -1.8599567206
H        1.4638952740   -0.9009512051   -1.9669342461
H        0.8003043084    0.0724226782   -0.6322977033
H        0.3043158060   -1.6275238765   -0.8289262037
H        4.9509555580   -1.2384347755   -2.7917551039
18   

C        5.0275611350    1.0330946171    1.1988553153
C        5.8694156837    1.0698726492    0.0873241963
C        3.8679040532    0.2546136141    1.1683375815
C        5.5445041352    0.3276700658   -1.0518855064
C        3.5428392847   -0.4978245275    0.0325380724
C        4.3838559796   -0.4538097903   -1.0905932065
C        2.2553888184   -1.2841796603    0.0325155930
C        1.1590661410   -0.9686908798   -0.9756107311
O        2.0621335897   -2.1526924064    0.8700791312
O        4.0927877074   -1.1676604708   -2.2168581293
H        5.2721121730    1.6059163279    2.0863608059
H        6.7712216916    1.6723643931    0.1091193787
H        3.2161498800    0.2267546570    2.0359062919
H        6.2054259539    0.3664545886   -1.9087752429
H        1.4156813441   -1.3920991832   -1.9496438824
H        1.0486282137    0.1143093776   -1.0732927624
H        0.2090942280   -1.3947486394   -0.6415934624
H        4.8195924961   -1.0958359700   -2.8582053847
18   

C        5.0238531551    0.8999647848    1.2659823218
C        5.8416536060    0.9701485520    0.1386878151
C        3.8345499052    0.1689903836    1.2190311664
C        5.4646925522    0.3072369757   -1.0327896134
C        3.4536816969   -0.5034781805    0.0479737210
C        4.2747344854   -0.4280064211   -1.0907775431
C        2.1348636819   -1.2265628262    0.0548249545
C        1.1352622152   -1.0625364997   -1.0822358140
O        1.8274942007   -1.9241431991    1.0129604984
O        3.9434621864   -1.0672166465   -2.2503706633
H        5.3089817187    1.4111403049    2.1786734934
H        6.7658213224    1.5370971178    0.1735522480
H        3.2018416011    0.1189642547    2.0999268517
H        6.1098546202    0.3709570915   -1.9001330754
H        1.3050388431   -1.8363858004   -1.8352860911
H        1.2542262617   -0.0792146235   -1.5447319965
H        0.1156390895   -1.1521972994   -0.6979453007
H        4.6519818267   -0.9607657085   -2.9072778421
18   

C        5.0770998674    0.8538464007    1.2798329769
C        5.8709766738    0.9417538920    0.1379514373
C        3.8596999682    0.1714424311    1.2314795050
C        5.4437473037    0.3422804317   -1.0495261193
C        3.4201689122   -0.4326382186    0.0407205300
C        4.2257804562   -0.3456920602   -1.1122265468
C        2.0824425880   -1.1168180306    0.0737127527
C        1.1449728497   -1.1280639883   -1.1274121757
O        1.6868705618   -1.6163858788    1.1214236485
O        3.8643493172   -0.9313864765   -2.2906908829
H        5.4021483757    1.3140476792    2.2062096042
H        6.8168377679    1.4716067572    0.1745232942
H        3.2517059661    0.1133016913    2.1292524339
H        6.0746313412    0.4159632193   -1.9265335543
H        1.3816358874   -1.9791293820   -1.7712277407
H        1.2539824641   -0.2013956623   -1.6968283728
H        0.1082612687   -1.2129316312   -0.7904401827
H        4.5637983000   -0.8097152983   -2.9546812396
18   

C        5.0830180200    0.7997862527    1.3193371573
C        5.8609780974    0.8892743975    0.1682697750
C        3.8307047940    0.1846207058    1.2692036549
C        5.3831875528    0.3571080140   -1.0306872216
C        3.3329246644   -0.3496816010    0.0655402595
C        4.1299801408   -0.2644530111   -1.0982546320
C        1.9669680649   -0.9783938683    0.1183463243
C        1.1066213294   -1.2077458061   -1.1189954254
O        1.4736853313   -1.2520117208    1.2086311714
O        3.7350521409   -0.7846638528   -2.2960797630
H        5.4471695422    1.2072199653    2.2558363577
H        6.8338843337    1.3675238979    0.2066546928
H        3.2452355514    0.1312893159    2.1820267791
H        6.0042730147    0.4300181764   -1.9147344129
H        1.4611990733   -2.0903084982   -1.6576638377
H        1.1513794349   -0.3345349767   -1.7748062724
H        0.0655471755   -1.3685387214   -0.8255340362
H        4.4289938210   -0.6538098835   -2.9640709440
18   

C        5.1368197607    0.7417162936    1.3248051819
C        5.9095594512    0.8403127831    0.1720257146
C        3.8570325086    0.1876727448    1.2623507863
C        5.3966425026    0.3825852118   -1.0421945144
C        3.3234184494   -0.2794076574    0.0452144916
C        4.1148238310   -0.1761445482   -1.1239601940
C        1.9337491216   -0.8573044862    0.0966843421
C        1.2005330648   -1.4089625408   -1.1209809656
O        1.3396025054   -0.8958518344    1.1707119722
O        3.6851390440   -0.6003468573   -2.3470149029
H        5.5263533563    1.0945460060    2.2731866182
H        6.9041073047    1.2707883814    0.2201115378
H        3.2829163671    0.1269120837    2.1818019820
H        6.0121750681    0.4673545344   -1.9290721683
H        1.7624868761   -2.2430102043   -1.5489830043
H        1.0763611625   -0.6226347721   -1.8699042477
H        0.2104203563   -1.7704837997   -0.8294345172
H        4.3713632858   -0.4426378262   -3.0171390292
18   

C        5.1399362158    0.6652646991    1.3459406481
C        5.9096471818    0.7742439804    0.1910148014
C        3.8354123420    0.1734434769    1.2713793555
C        5.3675897795    0.3939060532   -1.0380087655
C        3.2784060294   -0.2209447857    0.0400085805
C        4.0603894032   -0.1001006834   -1.1308375150
C        1.8700857630   -0.7495810726    0.0729884152
C        1.2736864103   -1.6024673133   -1.0408817278
O        1.1817370469   -0.5623994570    1.0720154821
O        3.5849769586   -0.4301631003   -2.3663188803
H        5.5512224343    0.9613428926    2.3044919799
H        6.9234258919    1.1559352254    0.2485221212
H        3.2594801873    0.0975741737    2.1886636846
H        5.9783057509    0.4913162393   -1.9269068134
H        2.0022618730   -2.3447194035   -1.3767804224
H        0.9848623803   -0.9650234487   -1.8805554486
H        0.3867058495   -2.1273029645   -0.6753377840
H        4.2576539880   -0.2490674023   -3.0442569251
18   

C        4.6333821925    1.9329432102    0.1016511424
C        5.7639112264    1.1271540520   -0.0186360577
C        3.3673870202    1.3994544985   -0.1487914753
C        5.6227484913   -0.2114715749   -0.3930027401
C        3.2150583195    0.0531707736   -0.5233993714
C        4.3596305974   -0.7594295479   -0.6478673483
C        1.8128965991   -0.4423375250   -0.7404684171
C        1.3901492276   -1.8645209773   -0.3935451027
O        0.9522594038    0.3377799710   -1.1334834336
O        4.2780295246   -2.0667652164   -1.0308337020
H        4.7340047811    2.9734933961    0.3893068374
H        6.7477763598    1.5406634320    0.1756681862
H        2.4961269294    2.0397606675   -0.0490564515
H        6.5116940744   -0.8227347723   -0.4863779981
H        1.9516246728   -2.2215967421    0.4736770283
H        1.5804028870   -2.5232140103   -1.2448659383
H        0.3233480175   -1.8886890913   -0.1550610527
H        5.1679724108   -2.4495598546   -1.1107451178
18   

C        4.6038729082    1.9101896201    0.1632250875
C        5.7455872645    1.1228654207    0.0179019862
C        3.3485204632    1.3794519201   -0.1423504704
C        5.6255010263   -0.1946499818   -0.4333606398
C        3.2220406354    0.0596335647   -0.6014095864
C        4.3721675810   -0.7365837892   -0.7422456115
C        1.8346911296   -0.4603524828   -0.8603795496
C        1.3845266785   -1.8152522419   -0.3306490122
O        1.0270533710    0.2333182828   -1.4650992017
O        4.2955626847   -2.0249349297   -1.1863975486
H        4.6882653145    2.9331526356    0.5125509150
H        6.7213385026    1.5336057699    0.2544059638
H        2.4634019184    1.9974298546   -0.0263009587
H        6.5209659319   -0.7939053914   -0.5411319363
H        1.9339826897   -2.0603882828    0.5820304450
H        1.5752133205   -2.5855373246   -1.0823478525
H        0.3151559279   -1.7903921501   -0.1044245083
H        5.1867690003   -2.4005745716   -1.2838919555
18   

C        4.5677738892    1.8358805100    0.2278951922
C        5.7211170335    1.0771337066    0.0291165420
C        3.3209929032    1.3122003974   -0.1228594898
C        5.6201407729   -0.2049321114   -0.5187994116
C        3.2153089642    0.0315659743   -0.6802449048
C        4.3744683576   -0.7369700032   -0.8717685702
C        1.8424448056   -0.5069535345   -0.9982155475
C        1.3226947929   -1.7549190941   -0.2979210717
O        1.1161397421    0.0785887642   -1.7873617398
O        4.3077297977   -1.9914991576   -1.4051162514
H        4.6371612788    2.8311684574    0.6523761516
H        6.6905432790    1.4820709173    0.2992416542
H        2.4257914605    1.9063940439    0.0313353171
H        6.5229443919   -0.7843894407   -0.6663018049
H        1.5658377572   -1.7083258180    0.7666536745
H        1.7833768891   -2.6454274219   -0.7321539171
H        0.2375283522   -1.8243741023   -0.4125293604
H        5.2019760507   -2.3428139129   -1.5521959254
18   

C        4.6407490028    1.8267910570    0.3526031247
C        5.8060311952    1.0973633916    0.1183899523
C        3.4030623344    1.3038490689   -0.0309010369
C        5.7247299872   -0.1547579607   -0.4966812236
C        3.3155562498    0.0559228380   -0.6556509592
C        4.4872805047   -0.6831314313   -0.8816865247
C        1.9654372511   -0.5117718287   -1.0299057302
C        1.3703929442   -1.6466024782   -0.2088645476
O        1.3447822698   -0.0803508760   -1.9876716388
O        4.4351786311   -1.9127726508   -1.4723618308
H        4.6941813797    2.7990236570    0.8295682037
H        6.7687108338    1.5009486108    0.4134997972
H        2.4994918195    1.8767587477    0.1506396956
H        6.6351839523   -0.7147883000   -0.6699908255
H        1.2540845270   -1.3261932857    0.8295554907
H        2.0318866702   -2.5158822653   -0.2422199940
H        0.3924749686   -1.9282534569   -0.6090708442
H        5.3327332923   -2.2407617529   -1.6491594646
18   

C        4.6248894004    1.7745566816    0.4295386801
C        5.8108745042    1.0983067762    0.1447027834
C        3.4005361016    1.2315423130    0.0308123680
C        5.7631403848   -0.1218536975   -0.5345151095
C        3.3466797739    0.0168816565   -0.6579505931
C        4.5387638427   -0.6692640983   -0.9339361082
C        2.0198763456   -0.5797356977   -1.0753633099
C        1.2887897125   -1.5108232150   -0.1210720521
O        1.5206570610   -0.3175839679   -2.1559872953
O        4.5151578680   -1.8730316732   -1.5773430345
H        4.6524070544    2.7216794340    0.9565896832
H        6.7633753145    1.5175526489    0.4507880377
H        2.4818684276    1.7654939627    0.2502837832
H        6.6885640988   -0.6432161283   -0.7451418783
H        1.1277917406   -1.0074173907    0.8355419927
H        1.8905354215   -2.4085653579    0.0435619685
H        0.3221811785   -1.8001769332   -0.5427684767
H        5.4178811028   -2.1576869072   -1.7965643594
18   

C        4.6013851003    1.6757033579    0.5019766282
C        5.8138766882    1.0739903043    0.1665163162
C        3.3982152900    1.0905254321    0.0986739630
C        5.8143161778   -0.1141013286   -0.5687478299
C        3.3916856427   -0.0971020480   -0.6391016682
C        4.6117891020   -0.7049442409   -0.9729187829
C        2.0871838922   -0.7101778706   -1.0964170613
C        1.1357012023   -1.2999313834   -0.0663349542
O        1.7301550443   -0.6361832941   -2.2595425139
O        4.6386655125   -1.8761333384   -1.6733561093
H        4.5922987689    2.5995509004    1.0694426153
H        6.7500510931    1.5270625007    0.4747554437
H        2.4605694235    1.5735604085    0.3525549283
H        6.7604415079   -0.5766132767   -0.8207590577
H        1.0916063176   -0.6581662415    0.8170102249
H        1.4933725312   -2.2895896207    0.2299144826
H        0.1323920881   -1.3939557143   -0.4909780571
H        5.5465776140   -2.0886625265   -1.9452190573
18   

C        4.5873774858    1.5891613999    0.5710277587
C        5.8160866355    1.0573229451    0.1833391993
C        3.4013773660    0.9691332496    0.1695989583
C        5.8506144887   -0.0973559868   -0.6015923157
C        3.4262035409   -0.1879580558   -0.6189376908
C        4.6666464019   -0.7254993384   -1.0047614192
C        2.1378869441   -0.8202344679   -1.0829247623
C        1.0684596607   -1.1966093223   -0.0660887084
O        1.8879807669   -0.9476320896   -2.2702253857
O        4.7369386008   -1.8663707681   -1.7505991496
H        4.5521605491    2.4877133938    1.1768288519
H        6.7387831935    1.5386228361    0.4894403752
H        2.4546688049    1.4086786288    0.4640559391
H        6.8099943041   -0.5060800110   -0.8933387734
H        0.9026500440   -0.3785158448    0.6382862229
H        1.3916694577   -2.0829794727    0.4861701933
H        0.1275813697   -1.4198998089   -0.5769458178
H        5.6446555394   -2.0153233667   -2.0613443830
18   

C        4.5896369529    1.4929712369    0.6481836352
C        5.8229860043    1.0375502471    0.1888324452
C        3.4169433033    0.8414435645    0.2592721180
C        5.8756221359   -0.0744417313   -0.6530399247
C        3.4536729761   -0.2734179294   -0.5920953886
C        4.7060760573   -0.7363610330   -1.0452974183
C        2.1758319672   -0.9312762710   -1.0345160578
C        1.0531792306   -1.1594515567   -0.0315159336
O        1.9925979962   -1.2542376615   -2.1979606306
O        4.8118136621   -1.8395787288   -1.8418255489
H        4.5398587625    2.3567428894    1.3016997354
H        6.7356679272    1.5434089862    0.4852361362
H        2.4673261807    1.2240457351    0.6168680652
H        6.8402223690   -0.4257809354   -0.9975721406
H        0.5363586361   -0.2183438033    0.1715289468
H        1.4658935450   -1.5556832440    0.9001056568
H        0.3358221150   -1.8807704291   -0.4331407862
H        5.7172467066   -1.9337368222   -2.1784184838
18   

C        4.5826666772    1.4236905351    0.7108469276
C        5.8176459225    1.0461412237    0.1930645343
C        3.4274337081    0.7374722381    0.3308361422
C        5.8899922050   -0.0242823514   -0.6979778313
C        3.4775569990   -0.3374059328   -0.5740333023
C        4.7395378448   -0.7230185446   -1.0839725219
C        2.2133872515   -1.0303569648   -0.9864765866
C        1.0264805880   -1.0898799953   -0.0325859526
O        2.0871653499   -1.5527736810   -2.0846796626
O        4.8844466404   -1.7841461386   -1.9298540497
H        4.5174292850    2.2542694089    1.4048142733
H        6.7168450513    1.5791778613    0.4830204992
H        2.4800834492    1.0673939089    0.7423252209
H        6.8577501449   -0.3156116884   -1.0868035828
H        0.4810282958   -0.1431187685   -0.0591360607
H        1.3746687989   -1.2830929433    0.9855733209
H        0.3513201667   -1.8975849319   -0.3293714666
H        5.7934691803   -1.8356516538   -2.2650147591
18   

C        4.6207926291    1.3814493910    0.7150316813
C        5.8377436103    1.0479570423    0.1325004101
C        3.4647988220    0.6795402156    0.3686603171
C        5.8910355807    0.0068432380   -0.7919150314
C        3.4892121383   -0.3712249734   -0.5686232400
C        4.7405705324   -0.7083354175   -1.1476694342
C        2.2250232610   -1.0910941863   -0.9251415909
C        0.9827694750   -0.9538383889   -0.0512375104
O        2.1364666913   -1.8138890230   -1.9086446949
O        4.8848131103   -1.7305932292   -2.0401544807
H        4.5697241720    2.1894861531    1.4362907613
H        6.7377726252    1.5924189084    0.3976293985
H        2.5379555758    0.9820701726    0.8421316002
H        6.8462630551   -0.2484344672   -1.2335187946
H        0.5471702594    0.0406820434   -0.1775319217
H        1.2439401708   -1.1115827790    0.9985091036
H        0.2393261887   -1.7024973894   -0.3400128185
H        5.7951783904   -1.7737102965   -2.3720675257
18   

C        4.6296201272    1.3631536657    0.7326776737
C        5.8322206808    1.0850063379    0.0954469056
C        3.4864214599    0.6250096212    0.4213919426
C        5.8829987924    0.0661348153   -0.8527034842
C        3.5073892624   -0.4113221858   -0.5332159435
C        4.7452473969   -0.6839005022   -1.1766033339
C        2.2589105601   -1.1798849009   -0.8387197265
C        0.9501179854   -0.8554549063   -0.1252594620
O        2.2285397163   -2.0876898648   -1.6594186106
O        4.8890442999   -1.6621162674   -2.1171690597
H        4.5801025882    2.1545147811    1.4723126587
H        6.7226535375    1.6565268406    0.3347956092
H        2.5753353126    0.8835827920    0.9479434326
H        6.8262915175   -0.1410744938   -1.3425142380
H        0.6576814683    0.1772124317   -0.3326085919
H        1.0667094222   -0.9982212290    0.9522097635
H        0.1566413564   -1.5196081335   -0.4802675929
H        5.8023436458   -1.6989124113   -2.4413937957
