25

C      2.28745   -0.68132    0.48903
C      1.28907   -0.12048    1.28461
C      2.44548   -0.90905    3.26864
C      3.39393   -1.33273    1.05150
C      1.38705   -0.23106    2.66942
C      3.44892   -1.43922    2.45648
C      4.39059   -1.86895    0.03351
N      0.74588    2.01064    4.07358
N      6.10446   -1.38701    2.98528
O      3.99360   -2.40719   -0.97534
O     -1.07213    0.69006    2.86460
O      0.07596   -0.27401    4.96067
O      4.42812   -2.30812    4.75483
O      4.98914   -3.62935    2.63678
O      5.69591   -1.62549    0.23346
S      0.10405    0.48484    3.71072
S      4.72819   -2.37148    3.32624
H      2.21748   -0.63378   -0.59254
H      0.43255    0.37468    0.83811
H      2.48142   -1.04794    4.34425
H      0.15322    2.73858    3.67582
H      0.82909    2.11270    5.08462
H      6.18225   -0.64775    3.68738
H      6.93027   -1.99033    3.04186
H      5.87363   -1.24383    1.12558
