47

C      6.79407    3.69982    2.30316
C      6.48564    3.94221    0.95687
C      5.94898    2.88475    3.05723
C      5.35191    3.37767    0.37719
C      4.80465    2.30952    2.48839
C     -0.88945    2.78397    3.40428
C     -2.21434    1.18734    3.05431
C      4.50535    2.55749    1.14121
C     -0.17418   -2.16626   -1.19549
C     -0.75744    0.08067   -2.13366
C     -2.55489   -1.42437   -1.29140
C      1.39262    0.81211    0.27064
C      0.45969   -0.19364    0.95913
C     -1.77679    0.94816    0.56496
C      2.51887    1.21183    1.21279
C     -1.10735   -0.94871   -1.03698
C     -0.98077   -0.36808    0.42616
N     -1.76170    1.94970    4.04353
N     -0.77957    2.58456    2.09467
N     -1.64905    1.55300    1.88062
O     -1.65199   -1.26346    1.34483
O      3.41849    2.04742    0.48233
H      7.67853    4.14151    2.75348
H      7.13285    4.57589    0.35562
H      6.17362    2.68847    4.10272
H      5.09940    3.55756   -0.66392
H      4.16462    1.68237    3.09828
H     -0.32776    3.56009    3.90851
H     -2.92253    0.37445    3.13308
H     -0.35446   -2.92274   -0.42324
H     -0.35419   -2.64793   -2.16192
H      0.88275   -1.88613   -1.16366
H     -1.47732    0.90368   -2.17099
H     -0.79171   -0.41288   -3.11087
H      0.23956    0.50737   -2.02045
H     -3.27354   -0.59951   -1.25600
H     -2.62245   -1.86500   -2.29172
H     -2.86628   -2.17296   -0.56065
H      0.85669    1.72026   -0.01396
H      1.83336    0.38750   -0.63580
H      0.94305   -1.17786    0.97024
H      0.35072    0.09397    2.00977
H     -1.43984    1.69547   -0.14918
H     -2.83343    0.74549    0.38466
H      2.10855    1.75733    2.07177
H      3.05306    0.32509    1.58377
H     -1.02984   -1.96087    1.60245
