15

C      0.29085    1.43491    0.65861
C     -0.31032    0.43352    0.01199
C      0.15546   -0.98142    0.14557
O      1.10151   -1.31934    0.83219
O     -0.99538    2.92980   -1.99196
O     -0.58870   -1.84502   -0.57853
O     -2.74145    1.17439   -2.81538
O     -0.27205    0.63115   -3.00654
O     -1.43030    0.61139   -0.80131
P     -1.31943    1.49551   -2.14467
H     -0.04751    2.45944    0.54784
H      1.14259    1.21160    1.29073
H     -0.19869   -2.72739   -0.42804
H     -3.32819    1.94905   -2.77926
H      0.25837    1.19729   -3.59286
