38

C      2.46753   -0.56832    0.15213
C      2.56661   -2.19853    1.91960
C      1.38418    0.05433    0.77537
C      1.47775   -1.59731    2.54875
C     -2.18234    1.03422    3.19156
C      3.07738   -1.70062    0.71016
C      0.88350   -0.47273    1.96800
C     -1.32932    0.88140    4.33321
C     -1.42268    0.53320    2.13354
C     -6.00987    3.41094    4.75419
C     -6.47995    2.02678    3.11647
C     -3.52123    1.55844    3.09078
C      4.27359   -2.34628    0.05117
C     -1.61218    1.25067    5.75337
C     -5.25036    4.13459    5.81049
N     -0.16532    0.34310    3.98801
N     -7.26858    3.58445    4.42778
N     -7.57055    2.70227    3.39456
N     -4.14819    1.99560    4.13249
N     -0.22209    0.13714    2.62945
N     -5.44415    2.44250    3.94156
S     -6.37868    0.69660    1.96090
Cl    -1.89056    0.33404    0.48800
H      2.85015   -0.15540   -0.77812
H      3.02322   -3.07484    2.37386
H      0.94360    0.94584    0.34190
H      1.08599   -1.98337    3.48389
H     -3.95981    1.58129    2.08994
H      5.20762   -1.96319    0.47948
H      4.26984   -3.43111    0.19293
H      4.29655   -2.14405   -1.02328
H     -2.50719    0.73657    6.11592
H     -0.75719    0.98418    6.37850
H     -1.80840    2.32319    5.84394
H     -4.81873    3.43411    6.53193
H     -4.42765    4.71600    5.38180
H     -5.93448    4.81074    6.32538
H     -7.72037    0.61433    1.85336
