35

C     -5.76328   -2.98115   -1.37544
C     -5.33481   -3.54937   -2.59171
C     -2.04393   -1.02537   -1.78299
C      0.45441   -0.31812    0.53892
C      0.24279   -1.15173   -0.73105
C     -0.46081    0.83024   -1.98057
C     -0.31783    1.73851   -0.74484
C      0.75685    1.15298    0.21228
C     -1.68134    1.98813   -0.08235
C      0.91371    1.97086    1.49724
C     -2.32176   -2.44037   -1.22992
N     -4.69029   -2.53860   -0.71033
N     -4.00267   -3.45053   -2.66272
N     -3.67356   -2.85239   -1.51626
N     -0.78212   -0.54169   -1.57930
O     -2.92049   -0.40659   -2.37871
O      2.02857    1.11524   -0.47880
H     -6.75692   -2.88024   -0.96041
H     -5.90202   -4.01376   -3.38690
H     -0.43867   -0.37314    1.16978
H      1.29320   -0.72771    1.11168
H      1.17858   -1.19352   -1.29813
H     -0.02608   -2.17559   -0.47445
H     -1.25596    1.18438   -2.63553
H      0.47951    0.80866   -2.54061
H      0.06512    2.70731   -1.09944
H     -2.11360    1.06890    0.32339
H     -2.39154    2.37444   -0.81867
H     -1.60956    2.71598    0.73012
H      1.09084    3.02916    1.26746
H      1.77034    1.59577    2.06516
H      0.02654    1.91195    2.13313
H     -2.19695   -2.46464   -0.14580
H     -1.64896   -3.17159   -1.68179
H      2.27787    2.02898   -0.69193
