15

C      0.34896    1.56391    0.61985
C     -0.05570    0.50423   -0.08674
C      0.42397   -0.88649    0.16534
O      0.27308   -1.81447   -0.61877
O     -1.88798    0.84484   -3.47508
O      1.05742   -1.03292    1.34461
O      0.40634   -0.39999   -2.96502
O      0.30358    2.05648   -2.77329
O     -0.99958    0.60416   -1.09017
P     -0.65097    0.75712   -2.68426
H     -0.01085    2.55747    0.37430
H      1.04203    1.44129    1.44336
H      1.36072   -1.96068    1.38601
H      0.27943   -1.17971   -2.37585
H     -0.15557    2.77656   -3.23867
