32

C     -1.29785   -2.33433    4.26122
C     -1.47070   -2.95203    3.00239
C     -1.74215   -1.03582    4.49440
C     -2.09230   -2.28134    1.95117
C     -3.42453    1.09735    2.03211
C     -2.37387   -0.33337    3.45139
C     -2.94766    0.99069    3.32845
C     -2.53646   -0.97645    2.19260
C     -5.02894    7.73854    5.21876
C     -5.09698    6.93734    4.05080
C     -4.06447    5.28069    5.14691
C     -3.00580    1.99947    4.36653
C     -5.57308    9.13672    5.27265
N     -4.45770    7.22070    6.30520
N     -4.62119    5.70985    3.99721
N     -3.96456    5.98389    6.29258
N     -3.53887    3.15758    4.16554
N     -3.17865   -0.07659    1.35431
N     -3.53399    4.01936    5.21595
O     -5.67343    7.44963    2.94228
H     -0.80873   -2.88609    5.05939
H     -1.11300   -3.96681    2.85142
H     -1.59979   -0.57794    5.47003
H     -2.22512   -2.75695    0.98249
H     -3.91965    1.93309    1.55736
H     -2.57279    1.73369    5.34067
H     -6.64607    9.15236    5.05287
H     -5.40582    9.54726    6.27022
H     -5.08449    9.78008    4.53286
H     -3.43150   -0.25307    0.39231
H     -3.12987    3.76322    6.11683
H     -5.62156    6.75329    2.25935
