32

C     -1.37454   -1.99398    4.61335
C     -1.31718   -2.68048    3.37987
C     -2.18066   -0.87084    4.77662
C     -2.06630   -2.25586    2.28452
C     -4.31316    0.59678    2.18005
C     -2.94883   -0.41836    3.68780
C     -3.87327    0.67902    3.49115
C     -2.87436   -1.12625    2.45579
C     -7.86651    6.60772    5.02235
C     -7.66143    5.77763    3.89117
C     -6.23768    4.52945    5.08573
C     -4.25611    1.66522    4.48086
C     -8.78934    7.79169    4.99943
N     -7.20964    6.31681    6.14427
N     -6.85302    4.73732    3.90502
N     -6.38326    5.27418    6.19983
N     -5.09126    2.61258    4.21481
N     -3.71689   -0.48066    1.56233
N     -5.37194    3.47674    5.22502
O     -8.32081    6.06104    2.74729
H     -0.77715   -2.35219    5.44737
H     -0.67834   -3.55406    3.28370
H     -2.21117   -0.35626    5.73373
H     -2.02190   -2.78445    1.33541
H     -5.00948    1.23679    1.65610
H     -3.80080    1.57096    5.47629
H     -9.81367    7.49013    4.75508
H     -8.78131    8.27026    5.98053
H     -8.47979    8.51985    4.24190
H     -3.87215   -0.75633    0.60294
H     -4.94275    3.38190    6.14551
H     -8.04802    5.38388    2.09844
