48

C      4.72879   -3.02367   -0.84138
C      6.15148   -1.73632    0.62860
C      3.39773   -1.47713    2.14980
C      2.71805   -0.82878   -0.07720
C      5.85110   -3.58650   -1.44532
C      7.28364   -2.27211    0.00977
C      2.20869   -0.95869    2.66867
C      1.54271   -0.28214    0.43353
C      6.35607   -0.86568   -3.39990
C      5.58889   -2.72631   -4.75771
C     -0.97910   -1.99010   -1.15002
C      0.03292   -3.30972    0.61893
C      5.04941   -0.37708   -3.34030
C      4.28330   -2.23610   -4.70547
C     -0.18207   -2.63433   -2.09728
C      0.83645   -3.95060   -0.32618
C      4.86277   -2.07972    0.18983
C      3.65192   -1.44821    0.76930
C      7.11945   -3.17471   -1.04016
C      1.28084   -0.38816    1.79830
C      6.61240   -2.05088   -4.09015
C     -0.85380   -2.31643    0.20174
C      4.02300   -1.06988   -3.98502
C      0.72949   -3.60213   -1.67387
O      8.23373   -3.66381   -1.74694
O      0.03380    0.06016    2.27194
O      7.87495   -2.65788   -4.16130
O     -1.66117   -1.57130    1.07382
S      8.90469   -2.56174   -2.83160
S     -1.06753   -1.17315    2.59928
Cl     2.37219   -0.47004   -3.87863
Cl     1.76849   -4.38719   -2.85727
H      3.74043   -3.30937   -1.18488
H      6.26952   -1.00975    1.42832
H      4.11375   -1.95019    2.81681
H      2.90383   -0.78706   -1.14499
H      5.75311   -4.30150   -2.25502
H      8.28283   -1.97250    0.31277
H      1.98517   -1.02264    3.72976
H      0.80944    0.18008   -0.21849
H      7.15268   -0.35200   -2.87321
H      5.81898   -3.64670   -5.28556
H     -1.67713   -1.21222   -1.44390
H      0.13464   -3.55047    1.67133
H      4.83306    0.53161   -2.78786
H      3.47571   -2.76573   -5.19942
H     -0.25283   -2.37159   -3.14735
H      1.54631   -4.70896   -0.01202
