67

C      2.83203    0.42798    2.38308
C      3.58784    1.37372    2.51388
C     -3.60870   -7.27531    2.69751
C     -3.30713   -8.21746    1.71014
C      0.86230   -0.58907    1.29627
C     -2.73799   -6.20473    2.91492
C     -2.14924   -8.07609    0.93904
C     -0.02149   -1.63871    1.12590
C      2.09118   -1.84242    2.97237
C      1.93750   -0.67038    2.22524
C      1.19313   -2.90774    2.80495
C     -1.57084   -6.07567    2.15367
C     -1.26641   -7.00635    1.14157
C      0.12588   -2.82083    1.88071
C      1.34819   -4.12847    3.58234
C     -0.64266   -4.93050    2.39639
C      2.34661   -9.54985    3.06898
C      4.77057    3.37661    1.43549
C      3.89578    3.91805    2.52936
C      1.14856   -8.67281    3.45253
C      3.44887   -9.51773    4.12689
C      2.67670   -7.27413    4.87198
C      4.46560    2.50465    2.65383
C      1.60975   -7.24590    3.77688
C     -0.04776   -6.83156    0.26470
C      4.77205   -8.28248    6.77983
C      5.74349   -6.60163    5.12911
C      0.44901   -6.30752    4.19340
C      5.10331   -7.97541    5.32262
N     -0.76642   -3.86053    1.68186
N      0.35656   -5.09794    3.36487
N      3.86502   -8.09148    4.41673
O      2.26709   -4.35563    4.38416
H     -4.51578   -7.36783    3.28780
H     -3.97816   -9.05284    1.53005
H      0.74442    0.32127    0.71614
H     -2.96591   -5.46103    3.67459
H     -1.93470   -8.79983    0.15616
H     -0.84169   -1.57830    0.41721
H      2.89745   -1.93812    3.69147
H      2.04251  -10.59224    2.93532
H      2.75803   -9.22114    2.10573
H      4.30272    3.09046    0.49949
H      5.78517    3.75243    1.34712
H      4.30465    4.66815    3.19908
H      2.83080    4.00128    2.34058
H      0.41795   -8.65863    2.63988
H      0.63914   -9.09857    4.32684
H      3.10820   -9.94254    5.07273
H      4.34081  -10.05793    3.80197
H      3.00924   -6.26220    5.09192
H      2.29836   -7.74950    5.77939
H      5.27527    2.37485    3.36709
H      2.06779   -6.81386    2.87796
H     -0.16049   -5.95381   -0.37995
H      0.86465   -6.67195    0.85078
H      0.10800   -7.70472   -0.37383
H      4.15978   -7.49886    7.23225
H      4.27231   -9.24625    6.90703
H      5.70988   -8.32910    7.33908
H      5.11429   -5.79118    5.50437
H      5.97722   -6.40481    4.07701
H      6.68577   -6.57446    5.68188
H      0.57348   -5.98185    5.22921
H     -0.49752   -6.83679    4.12138
H      5.77965   -8.74263    4.93425
H      4.15376   -7.68687    3.51927
