52

C    -10.13774   -8.36174   -0.38379
C     -3.20653   -5.25128   -2.76910
C    -10.22849   -8.31189    1.01187
C     -8.87561   -8.38934   -0.97592
C     -1.93451   -5.77762   -3.03336
C     -3.54203   -4.87817   -1.46879
C     -9.07861   -8.28352    1.79933
C     -7.71564   -8.34309   -0.19368
C     -0.99454   -5.90459   -2.00951
C     -2.61756   -5.01183   -0.41736
C     -7.80085   -8.28554    1.20833
C     -1.32735   -5.50501   -0.71384
C     -1.87394   -4.60486    1.86097
C     -2.90047   -4.72097    0.99467
C     -6.60782   -7.30595    3.13050
C     -5.33309   -8.39399    1.43913
C     -6.16558   -5.92393    2.63472
C     -4.81166   -7.06597    0.87549
C     -0.44365   -4.73241    1.38748
C      0.44773   -5.35275    2.46093
C      0.09307   -3.37110    0.92336
C     -4.31299   -4.64649    1.50420
N     -6.64582   -8.28407    2.05092
N     -4.80906   -6.01543    1.96918
O     -0.39971   -5.67461    0.27379
H    -11.03497   -8.39357   -0.99419
H     -3.92545   -5.12805   -3.57320
H    -11.20148   -8.31786    1.49516
H     -8.78165   -8.44365   -2.05704
H     -1.66876   -6.07460   -4.04379
H     -4.52864   -4.46160   -1.28305
H     -9.18231   -8.30384    2.87996
H     -6.75834   -8.37263   -0.70245
H      0.00013   -6.29699   -2.19758
H     -2.03961   -4.37855    2.91352
H     -5.92186   -7.66052    3.91100
H     -7.58470   -7.19792    3.59816
H     -5.33852   -9.14005    0.64387
H     -4.63027   -8.76237    2.19855
H     -6.85906   -5.53984    1.88321
H     -6.08079   -5.20235    3.45107
H     -3.79178   -7.15346    0.50194
H     -5.44854   -6.67690    0.08103
H      1.45896   -5.48848    2.07031
H      0.06332   -6.32904    2.76977
H      0.50002   -4.69866    3.33606
H      1.11837   -3.48322    0.55931
H      0.09369   -2.65909    1.75422
H     -0.52292   -2.95898    0.11948
H     -5.03157   -4.30230    0.76032
H     -4.38372   -3.99681    2.37864
H     -4.13293   -6.33009    2.67579
