32

C      2.84060   -0.36216    0.24060
C      2.14773   -2.49723    1.12030
C      1.72281    0.24253    0.82021
C      1.03168   -1.90674    1.71111
C      0.77576   -2.22769   -2.87665
C      2.78629   -1.75807   -3.28081
C      3.07059   -1.73558    0.38795
C      0.82793   -0.53488    1.55493
C      6.31751   -0.87223    0.34487
C      6.83028   -1.93457   -0.62680
C      5.39805   -1.50614   -0.64650
C      3.80341   -3.27649   -1.50259
C      4.25314   -2.44661   -0.25882
N      1.56068   -1.45018   -3.68202
N      1.43772   -2.99066   -2.01639
N      2.74050   -2.67975   -2.28771
O      4.79165   -3.43524    0.63573
F      5.05596   -0.69759   -1.73658
Cl    -0.57715    0.22027    2.28778
H      3.52092    0.25080   -0.33819
H      2.28863   -3.56944    1.21566
H      1.54831    1.30691    0.69930
H      0.32048   -2.50472    2.27188
H     -0.30538   -2.23717   -2.92817
H      3.71067   -1.34773   -3.66134
H      6.21157   -1.13476    1.39319
H      6.59919    0.15861    0.15627
H      7.44323   -1.58941   -1.45343
H      7.05956   -2.91955   -0.23719
H      4.66408   -3.46679   -2.14776
H      3.42746   -4.23050   -1.13462
H      4.71938   -3.08744    1.53916
