32

C      2.58173   -1.19587    0.86542
C      4.36098   -1.26265    2.48715
C      1.73878   -0.60555    1.80760
C      3.52934   -0.67588    3.44257
C      1.99498   -5.38289    0.38191
C      4.06245   -5.35614   -0.00122
C      3.90055   -1.53796    1.19071
C      2.21857   -0.35123    3.09257
C      6.76690   -0.27303    0.06734
C      6.98290   -1.18191   -1.14420
C      5.62407   -1.00819   -0.54222
C      4.19820   -3.00037   -0.92371
C      4.86864   -2.13240    0.17038
N      3.12066   -6.14928    0.49260
N      2.18531   -4.17838   -0.14525
N      3.52703   -4.17168   -0.38970
O      5.87568   -2.92029    0.81658
F      4.73120   -0.23994   -1.28490
Cl     1.16034    0.38467    4.28437
H      2.18389   -1.39524   -0.12150
H      5.38520   -1.49914    2.75754
H      0.71609   -0.35264    1.54698
H      3.89526   -0.46995    4.44349
H      1.01309   -5.71835    0.68968
H      5.11277   -5.59208   -0.11481
H      7.13686   -0.61453    1.02760
H      6.79115    0.79935   -0.09740
H      7.14935   -0.70498   -2.10516
H      7.49493   -2.12452   -0.98344
H      3.47349   -2.43327   -1.50452
H      4.98892   -3.33626   -1.59769
H      5.43169   -3.47905    1.47595
