32

C      2.09836   -0.68489    0.11294
C      3.36265   -1.83716    1.80809
C      0.96362   -0.71465    0.92419
C      2.23571   -1.87594    2.63354
C      3.46976   -5.11675   -1.16454
C      2.45186   -3.52998   -2.09738
C      3.31038   -1.24837    0.54051
C      1.04176   -1.31523    2.18204
C      5.93685    0.84011    0.57509
C      6.54121    0.49464   -0.78707
C      5.10715    0.19724   -0.48123
C      4.25441   -1.76215   -1.76332
C      4.56275   -1.22548   -0.34266
N      2.29370   -4.80922   -1.77784
N      4.33965   -4.11230   -1.09682
N      3.67070   -3.09288   -1.71241
O      5.61986   -1.98301    0.23160
F      4.17772    1.02436   -1.11529
Cl    -0.38315   -1.36256    3.20767
H      2.02819   -0.19655   -0.85339
H      4.29595   -2.26804    2.15283
H      0.03022   -0.27559    0.58613
H      2.28487   -2.33756    3.61483
H      3.69782   -6.09488   -0.76142
H      1.72954   -2.89752   -2.59671
H      6.22207    0.23157    1.42633
H      5.72937    1.88496    0.78259
H      6.72579    1.31574   -1.47296
H      7.23143   -0.33992   -0.83617
H      3.55512   -1.11110   -2.28696
H      5.18847   -1.80127   -2.32919
H      5.44863   -2.92702    0.02410
