24   

C       -2.3375651222   -2.2523546022    1.5195067360
C       -4.1284788253    1.8600277659    2.3107405562
C       -4.6385753434   -0.4635429548    2.6506514484
C       -5.3741889252    2.2119863261    2.8429065529
C       -5.8856771003   -0.1054308199    3.1767481522
C       -3.7276663394    0.5161016724    2.1948069224
C       -6.2666248750    1.2324404742    3.2776417378
C       -2.3901566003    0.2463690921    1.6059978451
C       -0.3696257212   -1.0527428876    0.8011800953
C       -1.7355851253   -0.9573049848    1.3446762704
C        1.6313294310    1.8713510134    1.1446191185
N       -2.7847909810   -3.3213751714    1.6388966447
N        0.5973867405   -0.2022592971    0.7263207960
O        0.4439252218    1.0907182562    1.2804456650
Cl      -7.8241010642    1.6703978479    3.9345496807
H       -3.4660656874    2.6533843250    1.9837030325
H       -4.4349123981   -1.5220773262    2.6226607667
H       -5.6555370172    3.2556824007    2.9197893354
H       -6.5683183670   -0.8779591653    3.5118608477
H       -1.8740127592    1.1459727581    1.3042129007
H       -0.0963293025   -2.0275014236    0.4114578253
H        1.4455871116    2.8893777119    1.4988416456
H        1.9397901571    1.9140215341    0.0954530884
H        2.4392135360    1.4324946536    1.7377981477
24   

C       -2.2844868117   -2.2454691416    1.5651327103
C       -4.1940646519    1.8551064632    2.1710888515
C       -4.5885730792   -0.4540625062    2.7077638460
C       -5.4168991497    2.2008351669    2.7578007585
C       -5.8124993548   -0.1026359577    3.2897219433
C       -3.7486882021    0.5214424769    2.1253099757
C       -6.2395173644    1.2248752202    3.3202047998
C       -2.4422215871    0.2540570777    1.4720689070
C       -0.4373548208   -1.0072448735    0.6072751960
C       -1.7708317108   -0.9438636456    1.2377005839
C        1.6299235976    1.7783691934    1.3660863290
N       -2.6660229672   -3.3193372577    1.8064968983
N        0.5489456292   -0.1778049219    0.6231290584
O        0.4154488526    1.0282256560    1.3536762495
Cl      -7.7678670993    1.6546839328    4.0471885061
H       -3.5855754196    2.6442755734    1.7443638479
H       -4.3428328309   -1.5036842607    2.7402154655
H       -5.7349690950    3.2365928180    2.7778635161
H       -6.4402847327   -0.8720157446    3.7245257310
H       -1.9579032191    1.1408322813    1.0837663137
H       -0.2028623235   -1.9417110918    0.1092052756
H        1.4650498438    2.7387278677    1.8629327674
H        1.9714453159    1.9646267699    0.3431529398
H        2.4055378144    1.2286564634    1.9077621221
24   

C       -2.2014762762   -2.2074926695    1.6283605722
C       -4.2564175054    1.8499054560    2.0969021589
C       -4.5706516646   -0.4517783310    2.7137599251
C       -5.4599632090    2.1840357271    2.7284191315
C       -5.7737985709   -0.1115642865    3.3437684116
C       -3.7805767618    0.5265085044    2.0703053832
C       -6.2308625582    1.2063402424    3.3573784730
C       -2.4976729504    0.2700672678    1.3697765885
C       -0.5021179045   -0.9380206954    0.4388648750
C       -1.8013247417   -0.9149542721    1.1508452071
C        1.6247776000    1.6730731019    1.5381185538
N       -2.4961590439   -3.2746552888    1.9908043395
N        0.5031068940   -0.1406384770    0.5380601091
O        0.3888097657    0.9703690483    1.4102172871
Cl      -7.7332784310    1.6221855089    4.1440652656
H       -3.6874436322    2.6395718010    1.6195502732
H       -4.2998311942   -1.4949117169    2.7575073498
H       -5.8030260550    3.2119859821    2.7322059285
H       -6.3616219746   -0.8820957145    3.8293985095
H       -2.0427561254    1.1511103946    0.9322343235
H       -0.3075986896   -1.8226455426   -0.1572130720
H        1.4863405549    2.5495426320    2.1776021508
H        1.9751146508    2.0046455747    0.5557970411
H        2.3822520396    1.0238196188    1.9875611327
24   

C       -2.0782022028   -2.1270413610    1.6999928338
C       -4.3209035010    1.8475577713    2.0208479831
C       -4.5339717981   -0.4425305023    2.7195993941
C       -5.5126047272    2.1615410200    2.6842509379
C       -5.7238535509   -0.1218498760    3.3841861145
C       -3.8002442052    0.5410595793    2.0206628070
C       -6.2251601586    1.1800657789    3.3734211117
C       -2.5339821618    0.3039434004    1.2856711658
C       -0.5399750684   -0.8445091345    0.2985601235
C       -1.8025910781   -0.8618576309    1.0870999530
C        1.6707074739    1.5442519683    1.6785117418
N       -2.2778406420   -3.1726990570    2.1731163154
N        0.4930966750   -0.1014586829    0.4732040384
O        0.4140957440    0.8984232928    1.4746914273
Cl      -7.7108858368    1.5716240913    4.2030820642
H       -3.7972328457    2.6392007762    1.4971678211
H       -4.2267416851   -1.4748838662    2.7803011572
H       -5.8917333113    3.1766068324    2.6664453978
H       -6.2664637934   -0.8950191465    3.9160073742
H       -2.1157152347    1.1814397688    0.8048719957
H       -0.4008849452   -1.6618512744   -0.3998039715
H        1.5771905415    2.2915090046    2.4716938515
H        1.9914817140    2.0431541757    0.7589208268
H        2.4292506829    0.8118140975    1.9711666393
24   

C       -1.9593587537   -1.9841903262    1.7756269911
C       -4.4617698707    1.8452861196    1.8971396935
C       -4.4920453463   -0.3952693047    2.7675346503
C       -5.6483498411    2.1285053628    2.5831935651
C       -5.6766176017   -0.1048415502    3.4551111505
C       -3.8528363937    0.5797020198    1.9708107682
C       -6.2665252888    1.1566390286    3.3702191896
C       -2.6000937817    0.3712670857    1.2052100817
C       -0.5913677596   -0.7076714819    0.1827039262
C       -1.8084924971   -0.7598974629    1.0500869482
C        1.7804406383    1.3455087641    1.7992090637
N       -2.0628537582   -2.9973352642    2.3413836181
N        0.4870932254   -0.0532008256    0.4128416858
O        0.4875529898    0.7948284415    1.5486160559
Cl      -7.7451383943    1.5104829353    4.2290149517
H       -4.0131187451    2.6281653552    1.2963534412
H       -4.1116064962   -1.3974198041    2.8900000459
H       -6.0973384214    3.1118635948    2.5066998439
H       -6.1450863058   -0.8699029071    4.0636011687
H       -2.2471490063    1.2386963010    0.6581041561
H       -0.5491600017   -1.4131813008   -0.6389003180
H        1.7631620514    1.9183935654    2.7307498412
H        2.0702309721    2.0106451248    0.9801531807
H        2.5225357840    0.5463569520    1.8904339563
24   

C       -1.8204039539   -1.7665053661    1.8704163927
C       -4.7137570489    1.7777009215    1.7018079408
C       -4.4389071828   -0.3151589894    2.8519807362
C       -5.8938955578    2.0157248588    2.4155302939
C       -5.6193571081   -0.0708591336    3.5641549351
C       -3.9566268437    0.6089042944    1.8994019249
C       -6.3580941712    1.0938591575    3.3539508217
C       -2.7212732116    0.4431578828    1.0958678339
C       -0.6367086240   -0.5113007818    0.1076312839
C       -1.7989260670   -0.5941815260    1.0501650071
C        1.9805578519    1.0623366370    1.8711405089
N       -1.8226631038   -2.7375561822    2.5142924904
N        0.4983718764    0.0267339744    0.3584962557
O        0.6407661636    0.6326580034    1.6320186545
Cl      -7.8296662089    1.3910546708    4.2456643122
H       -4.3875741657    2.5199888831    0.9822914590
H       -3.9349626482   -1.2408949514    3.0822442812
H       -6.4582453084    2.9246052813    2.2425477992
H       -5.9668507990   -0.7957611473    4.2913606890
H       -2.4961182128    1.2677928881    0.4286502234
H       -0.7530897049   -0.9829659866   -0.8609408578
H        2.0617760406    1.4697162132    2.8829335162
H        2.2596989694    1.8397141507    1.1535002334
H        2.6719398681    0.2197689197    1.7733593896
24   

C       -1.6789809878   -1.4939832064    1.9678020214
C       -4.9959020053    1.6191454803    1.5011772657
C       -4.3760885624   -0.1992598526    2.9460741871
C       -6.1719747284    1.8039069433    2.2369468278
C       -5.5558645435   -0.0117388010    3.6764006792
C       -4.0697839730    0.6135627065    1.8327782494
C       -6.4644217572    0.9889857941    3.3306307418
C       -2.8494892960    0.4972919537    0.9978801491
C       -0.6615269247   -0.2592715571    0.0810745943
C       -1.7741845763   -0.3789471581    1.0744385095
C        2.2074929902    0.7388893418    1.8789532528
N       -1.5904937437   -2.4176017034    2.6727528451
N        0.5292294732    0.1428865108    0.3309301293
O        0.8228205787    0.4564643296    1.6820653482
Cl      -7.9325478089    1.2180727170    4.2477433378
H       -4.8064691088    2.2756253766    0.6596422348
H       -3.7301460015   -0.9907335099    3.2931079949
H       -6.8674640395    2.5875766732    1.9600469565
H       -5.7683711694   -0.6511896905    4.5255228708
H       -2.7685844653    1.2361846565    0.2085019264
H       -0.9108412953   -0.4136020931   -0.9620331176
H        2.3848202139    0.9961863009    2.9271311398
H        2.5138449913    1.5815360901    1.2517112083
H        2.8110847283   -0.1370999487    1.6230765389
24   

C       -2.2439047991   -2.3543558026    1.8998735438
C       -4.2731684309    1.7196449267    1.5833934506
C       -4.3838543488   -0.2842777579    2.9065191154
C       -5.3859743173    2.2298970018    2.2614272932
C       -5.5002243979    0.2293039995    3.5777452696
C       -3.7459834258    0.4502061703    1.8830361787
C       -6.0123911920    1.4883867794    3.2631048671
C       -2.5612976095   -0.0031984598    1.1143322989
C       -0.6748079127   -1.3588787566    0.2536256830
C       -1.8425303048   -1.1919826809    1.1630587128
C        2.0341657611   -2.5762766315    2.1710744022
N       -2.5683259411   -3.3135102262    2.4769441161
N        0.5147122748   -1.7077308038    0.5856394239
O        0.7477262613   -1.9993763648    1.9534644054
Cl      -7.4030753115    2.1233780935    4.1067476269
H       -3.8162159899    2.3296572325    0.8126253900
H       -4.0498192907   -1.2587807985    3.2276801707
H       -5.7704506847    3.2117422578    2.0110018434
H       -5.9745010991   -0.3570286928    4.3564134634
H       -2.1752975389    0.7273125470    0.4122429887
H       -0.7980663888   -1.0248381987   -0.7697923132
H        2.1752271346   -2.7665074270    3.2389094314
H        2.8169695983   -1.8934242624    1.8273259518
H        2.1195011865   -3.5229789284    1.6292805600
24   

C       -2.0704835847   -2.1765831022    2.0973384390
C       -4.3910592571    1.6979416739    1.5157927794
C       -4.3517518750   -0.2101325284    2.9771481182
C       -5.5424355302    2.1673820259    2.1577721706
C       -5.5071268478    0.2618936295    3.6120419209
C       -3.7683677359    0.4970204273    1.9029743312
C       -6.1137239466    1.4522683519    3.2101227989
C       -2.5497848340    0.0847355029    1.1635626429
C       -0.5779881383   -1.1589223108    0.3723664611
C       -1.7447115288   -1.0443273593    1.2781984468
C        2.0639460381   -2.8405410008    2.0267715417
N       -2.3362992419   -3.1104146413    2.7423212008
N        0.5878657615   -1.6353078195    0.6300090262
O        0.8393060587   -2.1143702268    1.9401957116
Cl      -7.5525861023    2.0359499524    4.0088200663
H       -3.9805594318    2.2858043140    0.7028302544
H       -3.9453371381   -1.1303925992    3.3671460349
H       -6.0005881052    3.0964254150    1.8390779602
H       -5.9379034942   -0.3028966220    4.4308788317
H       -2.2220415756    0.7992419844    0.4168202088
H       -0.6754060686   -0.6943773552   -0.6017880209
H        2.1982944591   -3.2123159048    3.0466371614
H        2.9061098669   -2.1895632684    1.7737019495
H        2.0481000504   -3.6920389107    1.3398998702
24   

C       -1.9331843839   -2.0117265858    2.3022586233
C       -4.4546560704    1.6850495613    1.4837237044
C       -4.3563211661   -0.1587726426    3.0222297710
C       -5.6387748276    2.1256382490    2.0851112525
C       -5.5439417729    0.2846821915    3.6171107188
C       -3.7837366280    0.5315564080    1.9311249593
C       -6.1965347500    1.4283136704    3.1562226003
C       -2.5334461557    0.1497201346    1.2273492721
C       -0.4981836799   -1.0008384557    0.5017708120
C       -1.6683757304   -0.9290097054    1.3971401852
C        2.0865221911   -3.0258622168    1.8565266607
N       -2.1511295380   -2.9042535693    3.0199335659
N        0.6362471710   -1.5849676878    0.6701434873
O        0.8890433447   -2.2521011861    1.8942990860
Cl      -7.6757084156    1.9762657327    3.9050164317
H       -4.0573022392    2.2583532611    0.6540011368
H       -3.9197467415   -1.0444840518    3.4562589681
H       -6.1333257729    3.0180941450    1.7196455809
H       -5.9643417537   -0.2661880952    4.4506996992
H       -2.2407349920    0.8474578670    0.4508524681
H       -0.5664901637   -0.4295922859   -0.4165360572
H        2.2058870392   -3.5619268581    2.8024798350
H        2.9515300121   -2.3726136927    1.7083390547
H        2.0413154965   -3.7542597176    1.0413774685
24   

C       -3.0037669818   -1.9072035395    0.4048070009
C       -4.0618556106    2.0851306386    2.3031550132
C       -4.5763452718   -0.2496247271    2.5461122718
C       -4.9574610601    2.3914409188    3.3336219085
C       -5.4731649937    0.0635532607    3.5750469079
C       -3.8475095528    0.7600285417    1.8790388208
C       -5.6731769957    1.3836867622    3.9788757209
C       -2.8742485106    0.5439793903    0.7776655738
C       -1.4551786517   -0.4364430594   -0.9468528024
C       -2.4541737722   -0.6113352694    0.1190144262
C       -0.0626535217   -3.4973567316   -2.1183066238
N       -3.4558521090   -2.9594381119    0.6237262739
N       -0.7349434441   -1.2952464606   -1.5813668447
O       -0.8267647076   -2.6679776884   -1.2454109321
Cl      -6.7921355106    1.7656916854    5.2637480889
H       -3.5276689993    2.9013463377    1.8304627894
H       -4.4862989827   -1.2984240253    2.3122603698
H       -5.1014775085    3.4213423543    3.6389119525
H       -6.0214584780   -0.7307505714    4.0685461658
H       -2.4055959824    1.4592692035    0.4343200253
H       -1.2589440479    0.5865397832   -1.2454354823
H       -0.2081567379   -4.5466990881   -1.8459236837
H        1.0005428188   -3.2539126522   -2.0333053841
H       -0.3836751457   -3.3537007643   -3.1543238125
24   

C       -2.8064510763   -1.9340898269    0.6016928390
C       -4.1005823971    2.0891614828    2.2728720311
C       -4.5687923342   -0.2494550003    2.5658910749
C       -5.0370949480    2.4026639755    3.2640244635
C       -5.5048854428    0.0707301521    3.5570182955
C       -3.8397614999    0.7580845151    1.8956682873
C       -5.7487013264    1.3964053715    3.9159714336
C       -2.8260384794    0.5361317206    0.8321666658
C       -1.3163649093   -0.4483061282   -0.8066626124
C       -2.3401342554   -0.6264459398    0.2329625435
C       -0.1534759437   -3.4866488865   -2.2637574977
N       -3.1822282584   -2.9974094680    0.8979615950
N       -0.6806834443   -1.3002315620   -1.5344412011
O       -0.9399046866   -2.6842558213   -1.3855915534
Cl      -6.9175863046    1.7871967784    5.1528509986
H       -3.5714781027    2.9048096361    1.7935299350
H       -4.4525377534   -1.3016300259    2.3612123238
H       -5.2165286738    3.4370961532    3.5331009742
H       -6.0505307641   -0.7224106325    4.0553072856
H       -2.3904660107    1.4566317093    0.4605119925
H       -1.0303014972    0.5760338451   -1.0139346065
H       -0.4019201831   -4.5415742239   -2.1157425759
H        0.9107226028   -3.3415174031   -2.0556137718
H       -0.3572517382   -3.2182170008   -3.3046073514
24   

C       -2.6037150066   -1.9405237091    0.7925119273
C       -4.1288898192    2.0903441539    2.2375547648
C       -4.5528498355   -0.2517458699    2.5687171553
C       -5.1059130252    2.4034492678    3.1889656218
C       -5.5277969184    0.0679589276    3.5217934815
C       -3.8231842206    0.7577312849    1.9022722228
C       -5.8141525850    1.3951890175    3.8416288290
C       -2.7699890865    0.5350738752    0.8784612445
C       -1.1717387396   -0.4595188385   -0.6722969044
C       -2.2227508215   -0.6306577548    0.3430446736
C       -0.3008246908   -3.4776927946   -2.3496262564
N       -2.8998298364   -3.0057616704    1.1627718541
N       -0.6315431738   -1.3036699054   -1.4813762099
O       -1.0809419422   -2.6466578843   -1.4926016992
Cl      -7.0323610487    1.7854898442    5.0301270821
H       -3.6038079949    2.9072397573    1.7559187552
H       -4.4099939366   -1.3048803627    2.3863329654
H       -5.3198645020    3.4390984712    3.4262312040
H       -6.0713827802   -0.7266469511    4.0199947423
H       -2.3628958789    1.4554652706    0.4754355176
H       -0.7922061958    0.5482499588   -0.7927638483
H       -0.6572545376   -4.5096042745   -2.2818010395
H        0.7513842506   -3.4472580353   -2.0513696237
H       -0.3916497566   -3.1394063930   -3.3860563984
24   

C       -2.3822467273   -1.9342920784    0.9819202827
C       -4.1496705885    2.0772584476    2.1943717782
C       -4.5111204149   -0.2692376553    2.5681189905
C       -5.1674796039    2.3806476109    3.1053938680
C       -5.5256606996    0.0407979101    3.4822063561
C       -3.7905959725    0.7478108613    1.9037613387
C       -5.8637922980    1.3653652090    3.7603801902
C       -2.6990732981    0.5319531400    0.9207625428
C       -1.0146782546   -0.4750098126   -0.5425437729
C       -2.0923631645   -0.6314481071    0.4525429521
C       -0.4938670810   -3.4498954306   -2.4119255399
N       -2.5973642377   -2.9927854745    1.4206393864
N       -0.5810479191   -1.3027337013   -1.4276379628
O       -1.2097057654   -2.5664995754   -1.5509536992
Cl      -7.1318695520    1.7437293565    4.8995577208
H       -3.6351768513    2.8984934963    1.7087041942
H       -4.3315300623   -1.3209590632    2.4095798114
H       -5.4228932840    3.4140412502    3.3090679146
H       -6.0602240068   -0.7591100969    3.9816600096
H       -2.3187897893    1.4487143751    0.4844181886
H       -0.5471302852    0.5015430050   -0.5874592774
H       -0.9934477293   -4.4226766384   -2.4354800357
H        0.5288185241   -3.5870613834   -2.0481094820
H       -0.4635626954   -3.0429580134   -3.4270263697
24   

C       -2.1693763200   -1.9215364679    1.1806625953
C       -4.1794526868    2.0576951161    2.1125187229
C       -4.4465015596   -0.2834344135    2.5874458138
C       -5.2400165898    2.3549882393    2.9756523140
C       -5.5035598621    0.0207536739    3.4539950059
C       -3.7511031789    0.7345536699    1.8986771814
C       -5.9105041918    1.3396590773    3.6573606346
C       -2.6203055875    0.5208193223    0.9619861593
C       -0.8439075396   -0.5089418113   -0.3960750777
C       -1.9560263726   -0.6386659650    0.5740871196
C       -0.7201901141   -3.3775654067   -2.4701406758
N       -2.3190484624   -2.9636241116    1.6810205576
N       -0.5247051474   -1.3040526962   -1.3544188793
O       -1.3175628823   -2.4620237126   -1.5539076331
Cl      -7.2315439264    1.7107388613    4.7372173402
H       -3.6868918783    2.8778170218    1.6028263177
H       -4.2136241748   -1.3316737047    2.4823139073
H       -5.5494212936    3.3835035197    3.1206234979
H       -6.0175157923   -0.7792258336    3.9745095918
H       -2.2641712386    1.4265311649    0.4840554325
H       -0.2842533792    0.4185634028   -0.3679315203
H       -1.3525675169   -4.2648198311   -2.5664317882
H        0.2660365924   -3.6845103402   -2.1092604140
H       -0.6141667894   -2.9102418756   -3.4537159383
24   

C       -1.9618382707   -1.9123904372    1.4231887960
C       -4.2098896005    2.0167532287    1.9901478403
C       -4.3613223973   -0.2914535733    2.6441972992
C       -5.3107823508    2.3192442825    2.7994539650
C       -5.4590855691    0.0182630643    3.4563390904
C       -3.7033104799    0.7077912995    1.8942171731
C       -5.9442510821    1.3235125240    3.5429702104
C       -2.5361378606    0.4836971643    1.0067321892
C       -0.6713298334   -0.5808436197   -0.2283932748
C       -1.8111469812   -0.6687101956    0.7262932735
C       -0.9782206851   -3.2381804783   -2.5394633378
N       -2.0584385826   -2.9235134724    1.9946245759
N       -0.4720696734   -1.3200230093   -1.2584505560
O       -1.4100388612   -2.3538835461   -1.5066712706
Cl      -7.3156667701    1.7013862513    4.5555824277
H       -3.7482164441    2.8205983419    1.4282834340
H       -4.0666274107   -1.3293650612    2.6286555681
H       -5.6810525333    3.3363628783    2.8535145267
H       -5.9433854287   -0.7667409211    4.0257905051
H       -2.2084557897    1.3640772788    0.4653201488
H       -0.0129153682    0.2740359713   -0.1292338658
H       -1.7366179338   -4.0090830504   -2.7034754063
H       -0.0391030687   -3.7215789530   -2.2540393940
H       -0.8290930020   -2.6850886005   -3.4717030307
24   

C       -2.7750763730   -1.6415483457    0.1851310177
C       -3.6708498009    1.5632148451    3.3221678630
C       -4.8006274800   -0.1615457465    2.0863533144
C       -4.8596468617    1.8576914274    3.9994399093
C       -5.9862142307    0.1354878719    2.7694090219
C       -3.6081862502    0.5466853150    2.3518018813
C       -6.0285776949    1.1454445085    3.7309991628
C       -2.3053908212    0.3107151194    1.6833436395
C       -0.5259410879   -0.6120492509    0.2060571793
C       -1.9375490094   -0.6014390722    0.7022061101
C       -0.6264591828    0.4088999878   -3.1715985858
N       -3.4334874538   -2.5064157022   -0.2348219224
N       -0.1358068793   -0.2412133178   -0.9569651526
O       -1.1448209868    0.1707881151   -1.8637499622
Cl      -7.5115655055    1.5114548044    4.5770240766
H       -2.7858073235    2.1422017663    3.5598710493
H       -4.8661346786   -0.9516509257    1.3545627712
H       -4.8797766510    2.6473148690    4.7414694700
H       -6.8873725656   -0.4249690233    2.5483487873
H       -1.5096664647    0.9788709384    1.9932076766
H        0.2502585386   -0.8417930578    0.9263215701
H       -1.4327090997    0.7412460102   -3.8317725471
H       -0.1926091950   -0.5095405709   -3.5782974427
H        0.1440845724    1.1850299271   -3.1367029607
24   

C       -2.7790387869   -1.9152037591    0.3546117579
C       -3.6953208404    1.7219453428    2.9806391769
C       -4.7588740118   -0.2798930157    2.1806166860
C       -4.8624787100    2.0666397627    3.6717982519
C       -5.9242622467    0.0709362906    2.8728110648
C       -3.6116253208    0.5424166891    2.2190132451
C       -5.9885212254    1.2446081284    3.6243902986
C       -2.3330294862    0.2600160367    1.5228931679
C       -0.5583397116   -0.8588911705    0.1693292580
C       -1.9458142884   -0.8154070930    0.7339882373
C       -0.6996149686    0.7417468257   -2.9698168381
N       -3.4308139282   -2.8296480865    0.0439674730
N       -0.1841475263   -0.3502671353   -0.9450962576
O       -1.1720153587    0.3510789130   -1.6810015783
Cl      -7.4453896492    1.6749599181    4.4853972217
H       -2.8429553182    2.3887743105    3.0431254146
H       -4.8027745756   -1.2040921198    1.6257216868
H       -4.8989941800    2.9812657626    4.2519745819
H       -6.7919614227   -0.5770647365    2.8253362936
H       -1.5671719652    1.0173033170    1.6488943273
H        0.1879290332   -1.4027886045    0.7362538879
H       -1.5071386181    1.2248386631   -3.5273185275
H       -0.3587957969   -0.1342435526   -3.5301524495
H        0.1307894127    1.4469181358   -2.8678453888
24   

C       -2.7784924222   -2.1329244016    0.5281639594
C       -3.7275822630    1.7934735392    2.6787583682
C       -4.7120765379   -0.3618465963    2.2738971888
C       -4.8674767837    2.1807808059    3.3925456057
C       -5.8516257213    0.0326525457    2.9853287411
C       -3.6192322891    0.5155981775    2.1014774620
C       -5.9413173475    1.3046222307    3.5515215345
C       -2.3710966594    0.1933908473    1.3684150286
C       -0.6171275668   -1.0473501612    0.0925855276
C       -1.9609721403   -0.9785651576    0.7450245941
C       -0.7131212220    1.0254437532   -2.7616957155
N       -3.4144569040   -3.0919897047    0.3465042190
N       -0.2442146510   -0.4224458250   -0.9631557509
O       -1.1598709733    0.5132680393   -1.5064319260
Cl      -7.3650164130    1.7884424567    4.4392358854
H       -2.9151063956    2.5040260417    2.5781237418
H       -4.7313466469   -1.3639601243    1.8746266841
H       -4.9232400869    3.1710571677    3.8292175553
H       -6.6786898923   -0.6586688271    3.0997078518
H       -1.6448076144    0.9976546189    1.3237790416
H        0.0571866344   -1.8176951328    0.4481522824
H       -1.4819960017    1.6748868609   -3.1898532428
H       -0.5166828953    0.2047461779   -3.4584953229
H        0.2043509466    1.6058391023   -2.6251962040
24   

C       -2.7938317289   -2.2821252747    0.6732330714
C       -3.7697985508    1.8041633644    2.4840636102
C       -4.6947525350   -0.4101113674    2.3438220363
C       -4.8890477630    2.2264156564    3.2105671736
C       -5.8135981976    0.0188417251    3.0680665816
C       -3.6426331558    0.4786097067    2.0315775817
C       -5.9225391446    1.3381228122    3.5085952500
C       -2.4182915291    0.1236753019    1.2734465250
C       -0.7136005239   -1.1923728431   -0.0040303020
C       -2.0063385797   -1.0866337586    0.7267614363
C       -0.6360361008    1.2017594999   -2.6038572251
N       -3.4021382152   -3.2742279325    0.6203845854
N       -0.3019883649   -0.4844557437   -0.9935787822
O       -1.1187973955    0.5990254173   -1.4032858492
Cl      -7.3202494455    1.8649168205    4.4129900663
H       -2.9887427370    2.5256560082    2.2729384527
H       -4.6966796855   -1.4478947715    2.0491059676
H       -4.9601100402    3.2536798364    3.5483445049
H       -6.6090670178   -0.6827199814    3.2918705411
H       -1.7155867161    0.9382928040    1.1366430507
H       -0.1152593945   -2.0711844290    0.2076004694
H       -1.3038131425    2.0146928016   -2.9030061817
H       -0.5974439293    0.4620848085   -3.4094009136
H        0.3670099556    1.6089381099   -2.4440349588
24   

C       -2.7889644805   -2.3645686435    0.7919289066
C       -3.8048754465    1.8038877601    2.3716855538
C       -4.6992239523   -0.4270463022    2.3637886046
C       -4.9017328135    2.2415510423    3.1228989976
C       -5.7941460759    0.0165968355    3.1151745422
C       -3.6726461142    0.4613024321    1.9735489656
C       -5.9068839739    1.3519825399    3.5024839104
C       -2.4708232183    0.0922583572    1.1849850653
C       -0.8159179975   -1.2735207655   -0.1204371556
C       -2.0577708428   -1.1355286286    0.6758838724
C       -0.5094794303    1.3306970691   -2.5028145815
N       -3.3477885455   -3.3835832632    0.8717183970
N       -0.3458310392   -0.5129112420   -1.0460099146
O       -1.0573599603    0.6712882684   -1.3614306494
Cl      -7.2749451258    1.8970254352    4.4407867645
H       -3.0455563770    2.5273017987    2.0973161435
H       -4.7004324918   -1.4758492021    2.1120148075
H       -4.9771289220    3.2819263853    3.4167048985
H       -6.5679176497   -0.6862490468    3.4021852099
H       -1.7888950178    0.9136413320    0.9981914789
H       -0.2858562007   -2.2126740834   -0.0076261545
H       -1.0543205130    2.2607643667   -2.6883611740
H       -0.5945718827    0.6892701548   -3.3852168576
H        0.5453957382    1.5674002011   -2.3330195702
24   

C       -2.7815145362   -2.3991857624    0.9062001447
C       -3.8490729552    1.8150175847    2.2950569551
C       -4.7193044416   -0.4236773496    2.3778527504
C       -4.9160567000    2.2594437029    3.0844338563
C       -5.7821417484    0.0260820482    3.1704853987
C       -3.7181735033    0.4642398499    1.9244053227
C       -5.8914501147    1.3687001212    3.5324061100
C       -2.5457836297    0.0888276086    1.0939500050
C       -0.9450626231   -1.3233069336   -0.2483162967
C       -2.1293498216   -1.1518267352    0.6163826867
C       -0.3577926442    1.4239861252   -2.4200585060
N       -3.2741788090   -3.4324645836    1.1221544161
N       -0.4089312742   -0.5383205065   -1.1185803382
O       -0.9991629358    0.7279497762   -1.3514165527
Cl      -7.2197165088    1.9213598363    4.5220375001
H       -3.1120349878    2.5399942403    1.9689823908
H       -4.7263281857   -1.4767016582    2.1449650493
H       -4.9908462966    3.3060386849    3.3553778645
H       -6.5336687139   -0.6777029020    3.5096142811
H       -1.8928859019    0.9194468658    0.8583461334
H       -0.4840851244   -2.3044849129   -0.2155103288
H       -0.7818506853    2.4278900827   -2.5132254208
H       -0.5086482999    0.8877015255   -3.3617673219
H        0.7157086094    1.5112861695   -2.2259051142
24   

C       -2.7625250196   -2.4233510535    0.9849671145
C       -3.9352826688    1.8079121187    2.1874727308
C       -4.7206380183   -0.4516675356    2.4169261581
C       -4.9681642601    2.2522093259    3.0208889475
C       -5.7478907108   -0.0019305751    3.2552832972
C       -3.7782026351    0.4466516424    1.8675741960
C       -5.8819790275    1.3510148044    3.5666269982
C       -2.6426539947    0.0745281485    0.9845675504
C       -1.0839655371   -1.3696797884   -0.3937241613
C       -2.2076454588   -1.1732093543    0.5384782330
C       -0.1696188662    1.4804503337   -2.3200960962
N       -3.1756842298   -3.4587968165    1.3228928154
N       -0.4793282197   -0.5709315366   -1.2063911282
O       -0.9251866911    0.7651819001   -1.3427007130
Cl      -7.1657116888    1.9035739620    4.6134272675
H       -3.2459792443    2.5420766638    1.7861986429
H       -4.7083421100   -1.5131767046    2.2270001485
H       -5.0639486193    3.3070130216    3.2502032000
H       -6.4520943529   -0.7139509278    3.6702647201
H       -2.0455821846    0.9233225736    0.6844214839
H       -0.6973045532   -2.3820536841   -0.4418691846
H       -0.4737757047    2.5310794151   -2.3245633444
H       -0.3451099138    1.0573182825   -3.3137136490
H        0.8989188014    1.4239190228   -2.0903765617
24   

C       -2.3715542403   -2.2612576559    1.4629268454
C       -4.0654351404    1.8165450767    2.5493217589
C       -4.7181140174   -0.4957461868    2.5172554389
C       -5.3424414251    2.1719957790    2.9977994986
C       -5.9946730308   -0.1334339695    2.9641609465
C       -3.7168105334    0.4766712609    2.2940666759
C       -6.3202383373    1.2005191480    3.2082778008
C       -2.3336624904    0.2081052954    1.8180528038
C       -0.3066549176   -1.1016173049    1.0097831080
C       -1.7047745089   -0.9856679089    1.4557584021
C        1.6027908194    1.9101152567    0.8969264393
N       -2.8641905031   -3.3168744670    1.4499392170
N        0.6380703922   -0.2364984354    0.8541275615
O        0.4308131374    1.1322241200    1.1392037818
Cl      -7.9146315488    1.6434239363    3.7656829855
H       -3.3370612931    2.6052487617    2.3986678357
H       -4.5665332449   -1.5520566263    2.3641811503
H       -5.5809185552    3.2124037064    3.1851706678
H       -6.7442391585   -0.8998988432    3.1245970087
H       -1.7528752897    1.1125368299    1.7462507167
H        0.0122760127   -2.1066334052    0.7545649274
H        1.3976339799    2.9623161407    1.1141244970
H        1.9072013932    1.8187170414   -0.1501606804
H        2.4207652850    1.5699363614    1.5392040167
