16   

C        0.5835528675    0.8867062132    1.7731429123
C        0.3344245608    0.9003441839    3.1258243258
C       -0.2610894240    0.1632358224    0.9623554540
C       -4.2782737648   -1.9971500048    4.4797688187
C       -4.3309928274   -2.6059296235    3.2689066619
C       -1.4934568340   -0.4679937987    2.7986909337
C       -2.6556103790   -1.2100371894    3.3143732217
N       -0.6923709155    0.2317343610    3.6338208454
N       -1.2902884055   -0.5056209028    1.4705701510
N       -3.2196027328   -1.1199490757    4.4892672797
O       -3.3168741900   -2.1251994936    2.5131282469
H        1.4201587928    1.4312802657    1.3593067596
H        0.9823965828    1.4630431702    3.7882224703
H       -0.0863612834    0.1381449134   -0.1071897761
H       -4.9602493808   -2.1724523544    5.3035665348
H       -5.0579894507   -3.3470976595    2.9599876063
16   

C        0.5779203606    0.8955910458    1.7741235454
C        0.3873375359    0.8314886951    3.1350281732
C       -0.3155479564    0.2382502612    0.9590642859
C       -4.3332490128   -1.9259438396    4.4425682953
C       -4.2549071107   -2.6873750851    3.3224348922
C       -1.4777479449   -0.4832503314    2.8063988359
C       -2.6427222414   -1.2214117697    3.3261236023
N       -0.6297661668    0.1509913804    3.6470008033
N       -1.3356500983   -0.4417875513    1.4708379040
N       -3.3131256816   -1.0040693353    4.4248001171
O       -3.1949217348   -2.2602702814    2.5977578739
H        1.4065849621    1.4499033755    1.3572467240
H        1.0740284462    1.3420816574    3.8006266993
H       -0.1878166613    0.2761329855   -0.1167325420
H       -5.0801119639   -2.0258842418    5.2214646637
H       -4.9244188894   -3.4954136776    3.0538835268
16   

C        0.5647717402    0.8994396317    1.7805777146
C        0.4333196754    0.7555675838    3.1426660611
C       -0.3807414813    0.3146712458    0.9684843656
C       -4.3980495672   -1.8609454923    4.3988946783
C       -4.1905831563   -2.7575113175    3.4013758597
C       -1.4752862876   -0.4932138506    2.8191821012
C       -2.6448301174   -1.2267187641    3.3449546727
N       -0.5769312163    0.0677151266    3.6588296924
N       -1.3944189507   -0.3722256736    1.4839204559
N       -3.4176458492   -0.8981300261    4.3419975164
O       -3.0873187367   -2.3761374691    2.7165404368
H        1.3877699404    1.4598298118    1.3605996918
H        1.1615830505    1.2087363076    3.8056438040
H       -0.3000941055    0.4168532664   -0.1076892128
H       -5.2073399981   -1.8956486935    5.1188434730
H       -4.8021038686   -3.6259493599    3.1888707325
16   

C        0.5594680639    0.9070933157    1.7764766067
C        0.4816141738    0.6759663498    3.1309732093
C       -0.4402775557    0.4096318574    0.9706462162
C       -4.4684557077   -1.7987558070    4.3146759936
C       -4.1283384092   -2.8073894080    3.4721082886
C       -1.4813653195   -0.4822925105    2.8107191904
C       -2.6595605159   -1.2108311084    3.3375966994
N       -0.5296218088   -0.0116116227    3.6461535462
N       -1.4549736009   -0.2768829486    1.4846615471
N       -3.5330299148   -0.7959078995    4.2082981269
O       -2.9854641960   -2.4569219461    2.8372804247
H        1.3830988049    1.4673877372    1.3575978946
H        1.2535598458    1.0592999126    3.7885625253
H       -0.4019102314    0.5813965502   -0.0989927936
H       -5.3382995728   -1.7842273003    4.9609353150
H       -4.6767336215   -3.7307511427    3.3307685920
16   

C        0.5685582812    0.9024965445    1.7832550635
C        0.5310356460    0.5741585966    3.1194794755
C       -0.4846027050    0.5138840498    0.9852718811
C       -4.5417929019   -1.7494447470    4.2169432750
C       -4.0634047813   -2.8438130333    3.5711477318
C       -1.4997784989   -0.4566916257    2.7973529361
C       -2.6907725131   -1.1803801207    3.3168223428
N       -0.4935804736   -0.1009190354    3.6252180683
N       -1.5121980661   -0.1604925895    1.4896705408
N       -3.6616811886   -0.7073330203    4.0382544482
O       -2.8887163730   -2.5072606503    2.9889034697
H        1.4028534907    1.4527385955    1.3722163365
H        1.3464505462    0.8692053035    3.7701061517
H       -0.4776293530    0.7619189703   -0.0699721150
H       -5.4679752728   -1.7039658085    4.7778499582
H       -4.5391830151   -3.8159757390    3.5280289357
16   

C        0.5729516658    0.8983402807    1.7921320146
C        0.5548584406    0.4512957007    3.0937148571
C       -0.5247832690    0.6455571286    0.9998024143
C       -4.6327492682   -1.7127985213    4.0829996916
C       -4.0183437309   -2.8520993983    3.6729577162
C       -1.5489509433   -0.4156586591    2.7548189642
C       -2.7533230178   -1.1393395868    3.2498830875
N       -0.4948982411   -0.2045093307    3.5727950538
N       -1.5764881397   -0.0104606281    1.4779384327
N       -3.8145575981   -0.6419060840    3.8064434467
O       -2.8208266773   -2.5140991754    3.1401743767
H        1.4273668199    1.4331914066    1.4026797498
H        1.4067677127    0.6348612510    3.7385586551
H       -0.5328126028    0.9856001994   -0.0294764276
H       -5.6083506909   -1.6570309195    4.5516090413
H       -4.4165950623   -3.8558933834    3.7573834811
16   

C        0.5783780032    0.9009224165    1.7988117621
C        0.5800997601    0.3316496529    3.0516662900
C       -0.5534026306    0.7716528267    1.0251032542
C       -4.6897697116   -1.7238210723    3.9343201341
C       -3.9617012475   -2.8581854714    3.7716355799
C       -1.5753462498   -0.4000753966    2.7110917457
C       -2.7829038375   -1.1348424342    3.1739509294
N       -0.4841104568   -0.3200198009    3.5038142308
N       -1.6187545650    0.1188600123    1.4763408526
N       -3.9230281567   -0.6454708796    3.5578152902
O       -2.7442763735   -2.5101296099    3.2932892421
H        1.4442949433    1.4328657641    1.4314136557
H        1.4598730520    0.4137257820    3.6797855549
H       -0.5769859425    1.2066806143    0.0324812719
H       -5.7073151647   -1.6761582136    4.3042236487
H       -4.2958995057   -3.8655569732    3.9880651046
16   

C        0.5786346575    0.9159475916    1.8043337155
C        0.6126029628    0.2448808115    3.0051716396
C       -0.5852093731    0.8795681149    1.0693348400
C       -4.7183793762   -1.7400897794    3.8168777922
C       -3.9175656162   -2.8336478358    3.8925642778
C       -1.5766016481   -0.3981200293    2.6974939077
C       -2.7800939182   -1.1407983584    3.1415150940
N       -0.4517829249   -0.4139252798    3.4464724196
N       -1.6504791918    0.2192979022    1.5091575262
N       -3.9783566284   -0.6785839134    3.3504301465
O       -2.6802935245   -2.4777329233    3.4748049586
H        1.4446618998    1.4540416723    1.4462775909
H        1.5183553233    0.2515854469    3.6008555280
H       -0.6344177051    1.3947433464    0.1168267564
H       -5.7677964513   -1.7080623797    4.0855588366
H       -4.2158455846   -3.8187354895    4.2301304388
16   

C        0.5721955402    0.9272280363    1.8048543174
C        0.6423176056    0.1711922388    2.9524104304
C       -0.6216456424    0.9643253620    1.1197598482
C       -4.7340817705   -1.7785978512    3.7100796038
C       -3.8925219227   -2.8015155587    4.0062989222
C       -1.5707774573   -0.4111713810    2.6943552372
C       -2.7686437239   -1.1575242146    3.1312680206
N       -0.4159725517   -0.4988843394    3.3914314728
N       -1.6808212062    0.2929535143    1.5568374322
N       -4.0049188901   -0.7459769222    3.1683711019
O       -2.6394766289   -2.4302728927    3.6541383255
H        1.4334226129    1.4744225085    1.4490209161
H        1.5720082868    0.1194582747    3.5076306750
H       -0.6999675533    1.5476020995    0.2094041512
H       -5.8047047305   -1.7748188607    3.8781134770
H       -4.1739689638   -3.7492060674    4.4490007309
16   

C        0.5623835807    0.9396921243    1.8048642149
C        0.6651116196    0.1107836784    2.8983305748
C       -0.6577888764    1.0409994425    1.1749203894
C       -4.7429299447   -1.8252825607    3.6139479933
C       -3.8859661416   -2.7515790410    4.1132390009
C       -1.5667023552   -0.4218526282    2.6951361807
C       -2.7608623401   -1.1667580728    3.1327682215
N       -0.3865864152   -0.5690897275    3.3381511457
N       -1.7105248848    0.3603973664    1.6127078023
N       -4.0153890222   -0.8292402137    3.0061071347
O       -2.6241829542   -2.3553346032    3.8255960444
H        1.4185253641    1.4943967947    1.4483927078
H        1.6155075357    0.0089931816    3.4098576946
H       -0.7626649395    1.6836934893    0.3082972947
H       -5.8235929334   -1.8629682214    3.6862132365
H       -4.1629719094   -3.6508902634    4.6497259125
16   

C        0.5524580829    0.9576469370    1.8121453711
C        0.6801924744    0.0637254555    2.8502862096
C       -0.6891516404    1.1199549314    1.2395824804
C       -4.7451377786   -1.8743464913    3.5345355864
C       -3.8935371815   -2.6793492699    4.2185534106
C       -1.5674453144   -0.4204457477    2.7012357553
C       -2.7603092496   -1.1609466298    3.1439190763
N       -0.3673421911   -0.6221828720    3.2906619679
N       -1.7378423245    0.4339711890    1.6783088960
N       -4.0140596502   -0.9205851970    2.8664543822
O       -2.6314752179   -2.2473440379    3.9898906596
H        1.4054893659    1.5165392821    1.4547619483
H        1.6472073251   -0.0850992501    3.3172007495
H       -0.8147181523    1.8163989456    0.4184332058
H       -5.8247740916   -1.9672003374    3.5192597015
H       -4.1743684111   -3.5209044990    4.8400253777
16   

C        0.5490481135    0.9715129698    1.8276902198
C        0.6933539349    0.0150050462    2.8061478892
C       -0.7084557663    1.1943942742    1.3131709603
C       -4.7365160480   -1.9344111782    3.4596920222
C       -3.9122961164   -2.5985522074    4.3085191419
C       -1.5672838730   -0.4194497466    2.7059281953
C       -2.7615353951   -1.1545346662    3.1522033422
N       -0.3528689487   -0.6752277939    3.2428788756
N       -1.7560094260    0.5048648835    1.7489051560
N       -3.9947168180   -1.0285273564    2.7389717164
O       -2.6571335984   -2.1235782494    4.1335106129
H        1.4012457148    1.5331042105    1.4725562758
H        1.6725742822   -0.1803404094    3.2283365503
H       -0.8478368943    1.9427733506    0.5414267612
H       -5.8045159696   -2.0925011393    3.3656120707
H       -4.2069767914   -3.3739430932    5.0051117496
16   

C        0.5479139794    0.9806543981    1.8428953383
C        0.7019443597   -0.0365440265    2.7565432387
C       -0.7207755953    1.2637267790    1.3889370846
C       -4.7180210011   -2.0062216090    3.3915215714
C       -3.9401945493   -2.5117078421    4.3817793724
C       -1.5694809895   -0.4189194107    2.7038512655
C       -2.7662633005   -1.1489628187    3.1532201611
N       -0.3452548090   -0.7293525309    3.1868108878
N       -1.7694755096    0.5722733125    1.8189647141
N       -3.9608223167   -1.1526407893    2.6243712614
O       -2.6995948173   -1.9866643106    4.2515488024
H        1.4010384935    1.5436253212    1.4921961747
H        1.6897287083   -0.2783041861    3.1321883751
H       -0.8682436475    2.0623463558    0.6709209494
H       -5.7641843553   -2.2390446937    3.2308817590
H       -4.2564020692   -3.2136969232    5.1437065455
16   

C        0.6387282447    0.8369686768    1.8289039096
C       -0.3408353356    1.4524155044    2.5739063431
C        0.4989010398   -0.5034792546    1.5467784473
C       -3.9498817034   -2.8844849773    3.8682217434
C       -4.6558447830   -1.7254784540    3.8643637851
C       -1.4726472766   -0.5480637769    2.7248364727
C       -2.6255460079   -1.3481765063    3.1755755822
N       -1.3906143348    0.7699796760    3.0143548491
N       -0.5514015026   -1.1873322576    1.9853474193
N       -2.6694849395   -2.6259683864    3.4385339312
O       -3.8382030395   -0.7365201857    3.4339325940
H        1.4941172422    1.3926851292    1.4722000558
H       -0.2577338946    2.5080745905    2.8061837410
H        1.2548649549   -1.0095863274    0.9573173594
H       -4.3321177460   -3.8541096776    4.1652047226
H       -5.6927190710   -1.6110418581    4.1560950336
16   

C        0.6291899259    0.8432516265    1.8202968445
C       -0.3059361094    1.4278017203    2.6432918341
C        0.4505683294   -0.4741944106    1.4618415122
C       -3.9277808010   -2.8648362723    3.9618430166
C       -4.6829284137   -1.7582471457    3.7437115322
C       -1.4661305941   -0.5597737231    2.7231230822
C       -2.6216733901   -1.3634341186    3.1721693703
N       -1.3491741138    0.7369873769    3.0862060863
N       -0.5936414797   -1.1661988809    1.9027220242
N       -2.6276872697   -2.5930315791    3.6050361616
O       -3.8768751844   -0.7902356708    3.2485192783
H        1.4795948362    1.4054401632    1.4618180860
H       -0.1927680765    2.4655744303    2.9356852319
H        1.1701861441   -0.9549662714    0.8090758333
H       -4.2897644264   -3.8065786994    4.3575347193
H       -5.7451504428   -1.6650682780    3.9342802359
16   

C        0.6220950664    0.8579816698    1.8183243421
C       -0.2565647692    1.4045666875    2.7253517118
C        0.3958438068   -0.4293649320    1.3851629458
C       -3.9083707897   -2.8208491212    4.0776060234
C       -4.6917289200   -1.8007415698    3.6432895131
C       -1.4537984945   -0.5619593934    2.7370103695
C       -2.6089975001   -1.3690837869    3.1965672664
N       -1.2909178291    0.7056834956    3.1763128962
N       -0.6398043041   -1.1291633807    1.8345128499
N       -2.5951895841   -2.5240685446    3.7956881570
O       -3.8899202554   -0.8638081771    3.0853470993
H        1.4653713683    1.4264361342    1.4529514361
H       -0.1057660561    2.4185563387    3.0779935293
H        1.0701367764   -0.8795038864    0.6655779619
H       -4.2603493671   -3.7193756771    4.5708124712
H       -5.7700378703   -1.7450877160    3.7297303896
16   

C        0.6093494105    0.8595989354    1.8087590205
C       -0.1966121557    1.3679644599    2.8015876237
C        0.3156175453   -0.3878233669    1.3048526053
C       -3.9107442118   -2.7632069266    4.1851143671
C       -4.7009432759   -1.8718589200    3.5336412038
C       -1.4582469152   -0.5563153344    2.7487684390
C       -2.6115783175   -1.3634286152    3.2290920036
N       -1.2267239162    0.6707999888    3.2647131866
N       -0.7156806128   -1.0860516851    1.7670537892
N       -2.5938726319   -2.4188595949    3.9857099661
O       -3.8989706212   -0.9695006782    2.9215374715
H        1.4489814524    1.4266123016    1.4328985933
H        0.0087219711    2.3498994351    3.2125778580
H        0.9325563704   -0.8074018584    0.5184404270
H       -4.2610793261   -3.6057505532    4.7698233915
H       -5.7838334799   -1.8803027369    3.5090429569
16   

C        0.6067748588    0.8532068992    1.8029941924
C       -0.1030396132    1.3290784726    2.8818837957
C        0.2133474114   -0.3392850792    1.2374109262
C       -3.9162741639   -2.6687277950    4.3136649765
C       -4.6906457532   -1.9550883953    3.4565170748
C       -1.4743504222   -0.5152003559    2.7788121827
C       -2.6236319271   -1.3123750311    3.2916249820
N       -1.1385598508    0.6542793752    3.3655477795
N       -0.8227560545   -1.0161177907    1.7205709239
N       -2.6128503108   -2.2452491045    4.1933172265
O       -3.8919226460   -1.0850125992    2.7953371460
H        1.4504952875    1.4023267867    1.4100982473
H        0.1839291662    2.2664045692    3.3448502417
H        0.7553466868   -0.7331080718    0.3852085352
H       -4.2682949783   -3.4449534044    4.9830363541
H       -5.7603835459   -2.0629655950    3.3247682522
16   

C        0.6080921739    0.8434694687    1.7979054543
C       -0.0053579260    1.2833657792    2.9489282542
C        0.1045612561   -0.2780720476    1.1769962274
C       -3.9503977893   -2.5419402290    4.4111966955
C       -4.6735089849   -2.0361043275    3.3793097754
C       -1.5082699164   -0.4512970737    2.7972532127
C       -2.6578079717   -1.2296652904    3.3307606956
N       -1.0561253743    0.6433918510    3.4465680640
N       -0.9461702170   -0.9213656854    1.6742781813
N       -2.6771100467   -2.0238054795    4.3582639729
O       -3.8735045927   -1.2008377525    2.6761089438
H        1.4640447405    1.3646548427    1.3935833344
H        0.3717785602    2.1628529055    3.4583786060
H        0.5716696833   -0.6438119229    0.2697179267
H       -4.3160898744   -3.2427328737    5.1525859463
H       -5.7091374602   -2.2624282279    3.1566538851
16   

C        0.6142325686    0.8340275947    1.7941074376
C        0.0740892312    1.2197147118    2.9997742476
C        0.0274324626   -0.2144081800    1.1212255521
C       -3.9972024174   -2.4274905419    4.4664129328
C       -4.6381604591   -2.1271510605    3.3080040197
C       -1.5277878163   -0.4203437647    2.7957815768
C       -2.6806488808   -1.1826799398    3.3308197095
N       -0.9870904824    0.5987767759    3.4988794941
N       -1.0335638144   -0.8391441317    1.6203392914
N       -2.7588060165   -1.8288773053    4.4575632802
O       -3.8218645305   -1.3409596842    2.5680314309
H        1.4786354498    1.3399195686    1.3883516010
H        0.5185648675    2.0399762137    3.5519344988
H        0.4369449694   -0.5378475390    0.1710733431
H       -4.3946338656   -3.0432627055    5.2647633604
H       -5.6290833186   -2.4600794443    3.0242053558
16   

C        0.6078630735    0.8419498711    1.7944526291
C        0.1303497802    1.1598346475    3.0451304619
C       -0.0417132965   -0.1376852015    1.0776462906
C       -4.0519361392   -2.3226854762    4.5103538003
C       -4.5952610927   -2.2175462343    3.2711365150
C       -1.5379093742   -0.4096308674    2.7990505095
C       -2.6924606036   -1.1631347926    3.3296527631
N       -0.9309983104    0.5401691410    3.5448583648
N       -1.1030646304   -0.7609637122    1.5777469089
N       -2.8478532445   -1.6583059102    4.5254558056
O       -3.7513522379   -1.4901412400    2.5028031802
H        1.4724037065    1.3469040845    1.3878379764
H        0.6248632100    1.9248962836    3.6328430438
H        0.3178202888   -0.4076249906    0.0912574784
H       -4.4928063322   -2.8489324350    5.3489114731
H       -5.5388146439   -2.6429829954    2.9517446508
16   

C        0.6097849040    0.8530762627    1.7843771840
C        0.1882091942    1.0971730655    3.0709162972
C       -0.0903130032   -0.0622659873    1.0315720497
C       -4.1019793779   -2.2345027314    4.5170244399
C       -4.5324472263   -2.3170698675    3.2330875365
C       -1.5265763238   -0.4181013507    2.7906759977
C       -2.6826881491   -1.1680852169    3.3132557480
N       -0.8674958057    0.4681793675    3.5704623640
N       -1.1464673258   -0.6942013396    1.5317398107
N       -2.9323388767   -1.5121183562    4.5473881972
O       -3.6505802956   -1.6523170372    2.4510654071
H        1.4697441027    1.3656339543    1.3775747402
H        0.7225162995    1.8110817145    3.6874561068
H        0.2240821980   -0.2734370053    0.0158695054
H       -4.5972551355   -2.6701149442    5.3769173479
H       -5.4253725770   -2.8270246738    2.8926133785
16   

C        0.6035094748    0.8600799689    1.7795688688
C        0.2377600351    1.0293167480    3.0947054315
C       -0.1437683962    0.0067034036    1.0001264381
C       -4.1593313342   -2.1558464894    4.5180608714
C       -4.4684535079   -2.4225253911    3.2246525980
C       -1.5155532864   -0.4385121097    2.7915777259
C       -2.6734916508   -1.1861795937    3.3086164109
N       -0.8090285244    0.3873820519    3.5962650828
N       -1.1915707643   -0.6373323437    1.5023516696
N       -3.0253022578   -1.3791905543    4.5518199329
O       -3.5440765408   -1.8220592444    2.4399827901
H        1.4562131564    1.3831760972    1.3709154668
H        0.8091293873    1.6942210453    3.7324424672
H        0.1253649048   -0.1443452457   -0.0390261281
H       -4.7144823705   -2.5003619590    5.3826883917
H       -5.3081059966   -3.0133845536    2.8794652885
16   

C        0.5898082251    0.8762614324    1.7727203797
C        0.2840121360    0.9680418007    3.1105954733
C       -0.2076047205    0.0878748331    0.9748307185
C       -4.2211154596   -2.0703376255    4.5082959316
C       -4.4054236240   -2.5124789607    3.2395693387
C       -1.5081915876   -0.4497870830    2.7943051359
C       -2.6678672084   -1.1944533766    3.3104140411
N       -0.7525630816    0.3131525274    3.6165125385
N       -1.2458837770   -0.5681688463    1.4812459901
N       -3.1237759062   -1.2424826400    4.5340625255
O       -3.4373308324   -1.9737801336    2.4629310240
H        1.4342988999    1.4097739553    1.3604946160
H        0.8948017396    1.5817907278    3.7629128443
H        0.0129490831   -0.0005467948   -0.0828191843
H       -4.8379544878   -2.3277225579    5.3613639207
H       -5.1902336914   -3.1801750755    2.9055973461
