73

C     -7.42564    2.98027   -3.80596
C     -6.07327    3.26112   -3.58032
C     -8.40035    3.67538   -3.08286
C      3.57813   -9.04560    4.32119
C      4.28312   -9.57251    3.23590
C     -5.70204    4.21838   -2.63548
C     -8.02488    4.63976   -2.14378
C     -4.84167    6.60777    2.36415
C     -4.16550    7.88619    0.44363
C     -3.51566    4.06933    0.62449
C     -5.75496    3.21149    0.47503
C     -4.31213    7.57688    3.21174
C     -3.61980    8.86397    1.28003
C     -3.02939    2.78885    0.90851
C     -5.29191    1.93524    0.76731
C      3.13577   -7.72538    4.25301
C      4.51189   -8.74570    2.13294
C     -4.79771    6.74781    0.96432
C     -4.87533    4.30785    0.38308
C     -6.67024    4.91665   -1.89256
C     -3.69855    8.71367    2.66887
C     -3.92190    1.71074    0.97906
C      3.41160   -6.97510    3.09904
C     -5.35957    5.68527    0.08264
C     -6.26096    5.95182   -0.90028
C     -6.53652    7.98892   -2.41636
C      2.93578   -5.55550    2.96477
C     -6.91341    7.30755   -1.08968
C     -0.60508   -1.76349    2.05794
C     -2.05557   -1.35148    1.78273
C     -0.47103   -3.26178    2.35908
C     -2.18236    0.13636    1.49053
C      0.97667   -3.66643    2.62743
N      4.08994   -7.47641    2.05490
O      0.66011   -6.11892    1.55923
O     -3.18462    9.63844    3.54755
O     -3.56319    0.41885    1.25698
S      1.07422   -5.49385    2.87766
H     -7.71616    2.23161   -4.53852
H     -5.30654    2.73234   -4.14117
H     -9.45433    3.46569   -3.24846
H      3.37648   -9.65116    5.20101
H      4.64740  -10.59577    3.23936
H     -4.65113    4.42724   -2.45904
H     -8.79480    5.16355   -1.58305
H     -5.30372    5.72231    2.79210
H     -4.08462    8.00438   -0.63271
H     -2.81563    4.89960    0.58518
H     -6.81713    3.36539    0.31532
H     -4.36080    7.46952    4.29149
H     -3.12826    9.73545    0.84946
H     -1.96712    2.65098    1.07563
H     -5.97457    1.09350    0.84030
H      2.57872   -7.28106    5.07395
H      5.05875   -9.11900    1.26847
H     -6.80177    7.36088   -3.27216
H     -5.45992    8.18266   -2.46936
H     -7.05819    8.94628   -2.52181
H      3.22072   -4.94388    3.82754
H      3.32369   -5.12208    2.04058
H     -6.67639    7.96356   -0.25027
H     -8.00263    7.17098   -1.07526
H      0.01969   -1.51317    1.19025
H     -0.21034   -1.18157    2.90202
H     -2.45086   -1.91499    0.93003
H     -2.68694   -1.59561    2.64493
H     -1.09373   -3.51913    3.22520
H     -0.84699   -3.84567    1.51233
H     -1.59026    0.41002    0.60599
H     -1.81860    0.73027    2.34083
H      1.61850   -3.42931    1.77209
H      1.37694   -3.18488    3.52724
H     -2.79619   10.37069    3.04325
