68

C      7.09017   -1.00685   -2.33792
C      5.82552    6.27734    2.14690
C      6.00201   -1.02029   -1.45767
C      7.19962    0.00549   -3.29619
C      5.81137    4.88917    2.32818
C      5.80400    6.81172    0.85480
C      5.02655   -0.02408   -1.53081
C      6.22715    1.00688   -3.36641
C      5.76264    4.04132    1.22170
C      5.74744    5.96023   -0.25309
C      5.13859    1.00144   -2.48314
C      5.71349    4.57164   -0.07548
C      2.92593    2.07675    1.76331
C      4.04835    0.41492    4.76307
C      4.00301    0.37700    3.22463
C      2.48744    2.03946    4.25818
C      5.41303    0.49007    2.64133
C      3.27656   -0.87817    2.72101
C      0.96417    2.08388    4.17597
C      3.09078    3.36322    4.73547
C      0.20683    4.19320    0.82838
C      4.09974    2.08772   -2.55553
C      5.58656    3.64460   -1.25202
C      2.48993    4.62083   -0.22304
C      3.12343    4.15078   -1.53561
C      1.56647    3.60150    0.48246
N      3.15899    1.58702    2.98626
N      4.18450    3.07852   -1.39892
O      3.39006    1.58676    0.71024
O      2.80526    0.98027    5.15565
O      2.14159    3.17692    1.75509
H      7.84419   -1.78696   -2.28327
H      5.86737    6.93840    3.00787
H      5.90864   -1.81343   -0.72104
H      8.03630    0.01378   -3.98872
H      5.84581    4.47152    3.33013
H      5.83398    7.88772    0.70946
H      4.18403   -0.03946   -0.84603
H      6.31488    1.79060   -4.11588
H      5.75912    2.96506    1.36143
H      5.73261    6.38181   -1.25579
H      4.12005   -0.57952    5.20580
H      4.89034    1.02565    5.11606
H      5.40564    0.44635    1.55180
H      6.01891   -0.34318    3.01187
H      5.89587    1.41787    2.96242
H      3.09520   -0.81334    1.64579
H      2.31920   -0.99957    3.23510
H      3.88566   -1.76656    2.91481
H      0.58305    1.18760    3.68016
H      0.61269    2.97112    3.65223
H      0.57758    2.10089    5.19791
H      4.16585    3.25872    4.90398
H      2.62078    3.65476    5.67817
H      2.92695    4.15106    3.99735
H      0.31880    5.06885    1.47490
H     -0.41744    3.45674    1.33978
H     -0.30624    4.50399   -0.08682
H      4.19125    2.67096   -3.47494
H      3.08987    1.67441   -2.50414
H      5.81797    4.14694   -2.19441
H      6.24575    2.78269   -1.15227
H      1.89849    5.50264   -0.48998
H      3.24369    4.96836    0.48286
H      2.34937    3.74383   -2.19018
H      3.58506    4.99093   -2.05813
H      1.43494    2.70652   -0.13159
H      3.95556    2.52685   -0.53300
