66

C     -5.94490    3.64432    6.46681
C     -2.97382    1.10191   -3.86402
C     -5.06252    3.45914    5.40916
C     -2.48374    1.63382   -2.67121
C     -4.60288    1.17761   -1.56664
C     -7.15433    4.30085    6.19837
C     -4.27833    0.59886   -3.91740
C     -5.07503    0.64410   -2.76839
C     -6.58411    4.57085    3.80243
C     -7.43098    4.73884    4.89508
C     -3.29219    1.67494   -1.52353
C     -5.37432    3.91759    4.10345
C     -8.32469    4.70409    6.92194
C     -3.13145   -0.22452   -6.74520
C     -6.44904    0.07896   -3.05450
C     -6.22671   -0.71760   -4.35922
C     -5.05591   -0.00055   -5.08247
C     -6.55057    6.91360    0.69053
C     -5.16260   -1.60751   -7.06875
C     -2.53983    1.65363   -8.05795
C     -6.91155    5.07693    2.42164
C     -6.24232    6.43015    2.11063
C     -2.62760    2.96510    1.84786
C     -3.48564    2.28606    0.78813
C     -3.31558    3.01824    3.20274
C     -4.25977   -0.93314   -6.01565
C     -8.59623    4.49491    8.38512
N     -9.20236    5.31001    6.16378
O     -1.99310   -0.64304   -6.84665
O     -8.65650    5.34526    4.87009
O     -2.70697    2.21508   -0.40423
O     -4.52904    3.76551    3.04230
O     -3.54583    0.93253   -7.31914
F     -7.62729    5.08090    9.13516
F     -9.77859    4.98957    8.77420
F     -8.57408    3.17071    8.68687
H     -5.69897    3.29181    7.46325
H     -2.31921    1.07647   -4.72935
H     -4.12065    2.95758    5.59437
H     -1.47037    2.01872   -2.60328
H     -5.24449    1.19265   -0.69190
H     -6.84134   -0.53855   -2.23992
H     -7.16580    0.89596   -3.21418
H     -5.91711   -1.73937   -4.10703
H     -7.12781   -0.78495   -4.97431
H     -5.46075    0.81635   -5.69484
H     -6.18803    6.19878   -0.05733
H     -7.62904    7.03650    0.53864
H     -6.07329    7.87820    0.48868
H     -5.69339   -0.85775   -7.66349
H     -5.90241   -2.25008   -6.58444
H     -4.57099   -2.23029   -7.74690
H     -3.04206    2.53973   -8.44599
H     -2.15156    1.03972   -8.87396
H     -1.71475    1.93735   -7.39996
H     -6.58368    4.33880    1.68229
H     -7.99696    5.17773    2.32235
H     -6.58366    7.17262    2.84146
H     -5.15972    6.32980    2.24405
H     -1.68678    2.41486    1.95818
H     -2.37775    3.97893    1.51957
H     -3.77133    1.27477    1.11262
H     -4.40177    2.86099    0.61141
H     -2.66867    3.50935    3.93975
H     -3.55183    2.00854    3.56431
H     -3.77270   -1.70759   -5.41522
