24   
Generated by ForceBalance from scan.xyz: Frame 1 of 24
C       -1.8565817956   -3.2289195871   -1.6260979648
C       -1.8056157904   -2.5912596882   -0.3812985456
C       -0.8074319723   -3.0429163905   -2.5311045666
C       -0.7184567177   -1.7838395959   -0.0506951778
C        0.2878563121   -2.2339122122   -2.2166921417
C        5.3985214636    1.2690477646    1.3923434973
C        5.7313231491    0.8772141041    0.0932604611
C        4.0903009059    1.0121822749    1.8023888479
C        0.3379980184   -1.6031424359   -0.9617432664
C        3.6302943778    0.0811426042   -0.2330342629
C        2.6262579362   -0.6101563583   -1.1536669799
N        4.8552677945    0.2858636697   -0.7264393951
N        3.2031671355    0.4177391925    0.9966440665
N        1.4028009874   -0.7738560673   -0.5566806518
O        2.9339155172   -0.9793640985   -2.2792715237
H       -2.7028937039   -3.8587419620   -1.8859686137
H       -2.6124259691   -2.7224165622    0.3350868993
H       -0.8378357574   -3.5304787842   -3.5021989092
H       -0.6821768242   -1.2916592968    0.9193622213
H        1.0954773488   -2.0889541269   -2.9212999957
H        6.1185622039    1.7482564538    2.0479826982
H        6.7312307242    1.0428120239   -0.3055488054
H        3.7417665924    1.2853357480    2.7969520263
H        1.3632656498   -0.4182847634    0.3946437862
24   
Generated by ForceBalance from scan.xyz: Frame 2 of 24
C       -1.7344964019   -3.3332171776   -1.5191698566
C       -1.7116650179   -2.6231800840   -0.3134533551
C       -0.7360646273   -3.0974751319   -2.4690585951
C       -0.7004881687   -1.6963841853   -0.0625942465
C        0.2801432822   -2.1669317816   -2.2357683376
C        5.3867148950    1.1153186076    1.4631531321
C        5.7333873521    0.7398685950    0.1626530234
C        4.0453302326    0.9689259181    1.8158967099
C        0.3067163815   -1.4688899294   -1.0168326347
C        3.5829231407    0.1530226476   -0.2677401988
C        2.5601160395   -0.4241799540   -1.2447727699
N        4.8392521097    0.2632974298   -0.7103216374
N        3.1402478897    0.4854616986    0.9572616505
N        1.3010120557   -0.5173900004   -0.6977529269
O        2.8827685493   -0.7996481226   -2.3629448163
H       -2.5218613526   -4.0556245350   -1.7157534552
H       -2.4809644479   -2.7911884051    0.4357800641
H       -0.7471073289   -3.6384697391   -3.4118621034
H       -0.6846608604   -1.1497344328    0.8783653657
H        1.0464372938   -1.9796415948   -2.9762150373
H        6.1215064706    1.5021522493    2.1619995027
H        6.7591187119    0.8258671707   -0.1933677847
H        3.6839998054    1.2410592544    2.8061388354
H        1.2652412780   -0.1668826716    0.2562992545
24   
Generated by ForceBalance from scan.xyz: Frame 3 of 24
C       -1.5785862894   -3.4267347129   -1.3971866417
C       -1.5834234276   -2.6462038239   -0.2358932104
C       -0.6445703738   -3.1521858794   -2.4009775769
C       -0.6610919201   -1.6114390793   -0.0788225599
C        0.2787839217   -2.1124188828   -2.2626579747
C        5.3285991370    0.9253684543    1.5001866531
C        5.6924304335    0.5646113322    0.1999939433
C        3.9656293288    0.9019069264    1.7945006762
C        0.2823584806   -1.3464852249   -1.0856666930
C        3.5153075866    0.2101515910   -0.3359406999
C        2.4845693022   -0.2384484844   -1.3702797428
N        4.7938179409    0.2135590887   -0.7260085551
N        3.0551204081    0.5403656804    0.8828113891
N        1.1957673707   -0.2844609538   -0.8691589453
O        2.8176273792   -0.5978956659   -2.4888409935
H       -2.2965391513   -4.2330143811   -1.5192502810
H       -2.3042358773   -2.8435857759    0.5533698294
H       -0.6366792599   -3.7463252459   -3.3112737209
H       -0.6641471499   -1.0119324821    0.8294050365
H        0.9927370521   -1.8920618911   -3.0459136067
H        6.0674460393    1.2112375058    2.2420297503
H        6.7359630800    0.5605308484   -0.1118592440
H        3.5905969004    1.1745061607    2.7794667535
H        1.1662472053    0.0758513580    0.0823631244
24   
Generated by ForceBalance from scan.xyz: Frame 4 of 24
C       -1.4013114070   -3.4891798162   -1.2558760305
C       -1.4448980232   -2.6388627260   -0.1459285377
C       -0.5299275582   -3.1931444120   -2.3092163589
C       -0.6209691854   -1.5137368123   -0.0867226857
C        0.2908773466   -2.0631577747   -2.2700326489
C        5.2180536172    0.7115627109    1.5178809508
C        5.5979258931    0.3859189857    0.2128893888
C        3.8486340357    0.8054757002    1.7639395191
C        0.2582412494   -1.2269842945   -1.1431591916
C        3.4191801874    0.2678713977   -0.4141668985
C        2.3899007646   -0.0360769277   -1.5011101199
N        4.7068261952    0.1727522712   -0.7610885980
N        2.9442238375    0.5780405427    0.8038645202
N        1.0766910784   -0.0677687403   -1.0377843026
O        2.7304711282   -0.3433552741   -2.6304081021
H       -2.0417354621   -4.3656672967   -1.3011488956
H       -2.1178783384   -2.8517952056    0.6807060772
H       -0.4938193191   -3.8413471467   -3.1811249979
H       -0.6512188266   -0.8611068822    0.7834967251
H        0.9525081540   -1.8246939495   -3.0940629034
H        5.9509053304    0.8856380621    2.2992765627
H        6.6479068948    0.2980884522   -0.0628479445
H        3.4628203191    1.0643117604    2.7484306706
H        1.0378349290    0.3111045712   -0.0934335655
24   
Generated by ForceBalance from scan.xyz: Frame 5 of 24
C       -1.1670200419   -3.5100480382   -1.1097024732
C       -1.2635471020   -2.5968822996   -0.0548589752
C       -0.3541561365   -3.2043237471   -2.2067062066
C       -0.5484777733   -1.3977916868   -0.0908387990
C        0.3538937388   -2.0014695322   -2.2622286216
C        5.0842136253    0.4792487796    1.5279636777
C        5.4839840148    0.1962073749    0.2188371848
C        3.7203253617    0.6855621652    1.7325612069
C        0.2692099297   -1.0990221309   -1.1911767391
C        3.3302925222    0.3166655335   -0.4870891137
C        2.3180243301    0.1693480226   -1.6209933277
N        4.6168746831    0.1245385684   -0.7964704200
N        2.8371294567    0.5976423965    0.7303587604
N        0.9770669729    0.1417654652   -1.1997972282
O        2.6718772323   -0.0551736821   -2.7621758051
H       -1.7215680574   -4.4438217653   -1.0795002939
H       -1.8919143565   -2.8176216905    0.8042830305
H       -0.2776827309   -3.9020405365   -3.0368158158
H       -0.6162091907   -0.6968754615    0.7386013113
H        0.9676152737   -1.7558812805   -3.1216972248
H        5.7985446039    0.5385951123    2.3429766661
H        6.5316702033    0.0271019959   -0.0258053852
H        3.3212462837    0.9226773988    2.7172148740
H        0.9253108693    0.5494803044   -0.2675543201
24   
Generated by ForceBalance from scan.xyz: Frame 6 of 24
C       -0.8889964310   -3.4810030208   -0.9571250064
C       -1.0622771331   -2.5132143252    0.0372624906
C       -0.1114105019   -3.1749338069   -2.0796248898
C       -0.4579768644   -1.2591783860   -0.0818553368
C        0.4833435513   -1.9187949236   -2.2179958804
C        4.9400371079    0.2352709618    1.5494690023
C        5.3605159926   -0.0081426529    0.2388432664
C        3.5942965091    0.5577562146    1.7231597266
C        0.3189402908   -0.9571026646   -1.2097098935
C        3.2554335086    0.3585039552   -0.5242540293
C        2.2774722054    0.3825885256   -1.6958961148
N        4.5289224124    0.0638061571   -0.8057976038
N        2.7433767022    0.6118239274    0.6910502123
N        0.9047658421    0.3451882638   -1.3275507109
O        2.6581466979    0.2961527492   -2.8432667086
H       -1.3560045423   -4.4572370003   -0.8608936768
H       -1.6639257117   -2.7337377908    0.9154481107
H        0.0256270578   -3.9154662174   -2.8635801997
H       -0.5825309747   -0.5160281263    0.7027654978
H        1.0676166825   -1.6765667342   -3.0997750516
H        5.6259751740    0.1786402225    2.3887458728
H        6.3957995847   -0.2634497111    0.0175201350
H        3.1831947520    0.7739130968    2.7076512274
H        0.8220516141    0.7934454961   -0.4155787957
24   
Generated by ForceBalance from scan.xyz: Frame 7 of 24
C       -0.8468117159   -3.4450851055   -0.7215465875
C       -1.5857009683   -2.3146520597   -0.3525509309
C        0.4549866386   -3.2850399775   -1.2043501877
C       -1.0233216835   -1.0414725869   -0.4487737778
C        1.0158166572   -2.0106273476   -1.3274218510
C        5.2598781374   -0.1702984509    1.1250757054
C        5.4756729566    0.0781083403   -0.2327492005
C        3.9321602912   -0.1644072345    1.5554177033
C        0.2795850587   -0.8810179871   -0.9434074368
C        3.2412071459    0.3270989725   -0.5552812750
C        2.1098063466    0.6785754360   -1.5088548422
N        4.4730521217    0.3257864601   -1.0819082874
N        2.9151478898    0.0782058464    0.7203101972
N        0.8124653716    0.4406113284   -1.0270709555
O        2.3136658961    1.3359931214   -2.5158199663
H       -1.2830240383   -4.4366930262   -0.6394208625
H       -2.5989420205   -2.4245244029    0.0253232256
H        1.0347665491   -4.1533911605   -1.5065640191
H       -1.5843062007   -0.1658732665   -0.1314706654
H        2.0133967002   -1.9005491123   -1.7427772334
H        6.0811249473   -0.3660401501    1.8076275361
H        6.4796053938    0.0744750745   -0.6550362090
H        3.6715357714   -0.3621847623    2.5941227580
H        0.1834373126    1.0394970951   -1.5607791394
24   
Generated by ForceBalance from scan.xyz: Frame 8 of 24
C       -0.6771463512   -3.4476357809   -0.6516631819
C       -1.4723668604   -2.3655387361   -0.2556928494
C        0.5678325914   -3.2054288221   -1.2387297644
C       -1.0188696592   -1.0570265436   -0.4259779757
C        1.0167409125   -1.8968494559   -1.4390337154
C        4.9939278956   -0.2639715114    1.1011317426
C        5.2102241841   -0.1703338582   -0.2759307740
C        3.6991150797    0.0024679387    1.5474911716
C        0.2268849033   -0.8152930236   -1.0227056421
C        3.0379266271    0.4154875603   -0.5875242148
C        1.9504104129    0.8760886504   -1.5455698357
N        4.2397508520    0.1748100394   -1.1287860088
N        2.7094183928    0.3331175936    0.7081448519
N        0.6501652088    0.5367336846   -1.1867282550
O        2.1996381164    1.6596379598   -2.4494670444
H       -1.0275592695   -4.4662376290   -0.5099987048
H       -2.4422418151   -2.5408590873    0.2024605643
H        1.1878814851   -4.0367487332   -1.5640482891
H       -1.6175220588   -0.2158528117   -0.0859417950
H        1.9652418525   -1.7230059636   -1.9387378478
H        5.7899947176   -0.5372858279    1.7868419028
H        6.1875210527   -0.3776065200   -0.7097466019
H        3.4408756453   -0.0538921371    2.6038967154
H       -0.0048677828    1.0930486327   -1.7328131375
24   
Generated by ForceBalance from scan.xyz: Frame 9 of 24
C       -0.5079933991   -3.3896313776   -0.5874460871
C       -1.3261725488   -2.3170162056   -0.2137043320
C        0.7031246397   -3.1355858668   -1.2376479625
C       -0.9278469183   -1.0036446601   -0.4673065830
C        1.0948710972   -1.8243751097   -1.5215356853
C        4.8913542368   -0.3789892700    1.0352895559
C        5.1189704998   -0.2846927386   -0.3396518129
C        3.6210653828   -0.0146501118    1.4831012370
C        0.2845075319   -0.7511394936   -1.1239628514
C        2.9998399804    0.4681705597   -0.6486325005
C        1.9512391464    1.0256007378   -1.5982877449
N        4.1813058294    0.1462478220   -1.1910088894
N        2.6619677738    0.4000288819    0.6454418913
N        0.6553039037    0.6001078904   -1.3786344210
O        2.2306829889    1.9142017572   -2.3914085486
H       -0.8147959042   -4.4110739324   -0.3798761390
H       -2.2698370386   -2.5025361578    0.2925519378
H        1.3393367845   -3.9608689478   -1.5466807529
H       -1.5416840202   -0.1668724744   -0.1443448062
H        2.0156680814   -1.6401008931   -2.0669056179
H        5.6611386046   -0.7232846800    1.7190348024
H        6.0789032082   -0.5610857116   -0.7736074335
H        3.3574953262   -0.0600160168    2.5387181536
H       -0.0090806138    1.1372919205   -1.9301428015
24   
Generated by ForceBalance from scan.xyz: Frame 10 of 24
C       -0.4101624733   -3.3363582347   -0.5169793537
C       -1.2503024473   -2.2628860659   -0.1999231764
C        0.7973722434   -3.0936318199   -1.1788061948
C       -0.8764688006   -0.9567339552   -0.5207527615
C        1.1645676981   -1.7921210043   -1.5299101600
C        4.8488489463   -0.4506425399    0.9846753792
C        5.0754841627   -0.3250866023   -0.3877225480
C        3.5956146837   -0.0493940956    1.4490806117
C        0.3333653384   -0.7162305706   -1.1859517830
C        2.9855410675    0.5146208595   -0.6652387733
C        1.9523159846    1.1415454611   -1.5873290396
N        4.1517229353    0.1658117814   -1.2225674817
N        2.6501949667    0.4257496041    0.6281770789
N        0.6812786944    0.6214849002   -1.5168450551
O        2.2275699835    2.1291960956   -2.2566444231
H       -0.6977309290   -4.3514747431   -0.2573434319
H       -2.1914570982   -2.4405555238    0.3137286647
H        1.4490105751   -3.9218281738   -1.4448849684
H       -1.5078189306   -0.1167645561   -0.2428552482
H        2.0817798626   -1.6151683907   -2.0832337235
H        5.6070227209   -0.8442721902    1.6546196103
H        6.0229918481   -0.6242576554   -0.8336397172
H        3.3349035060   -0.1138319048    2.5043940242
H        0.0000312744    1.1646003430   -2.0390475234
24   
Generated by ForceBalance from scan.xyz: Frame 11 of 24
C       -0.3601013236   -3.3053071285   -0.4528438263
C       -1.2197671140   -2.2297826049   -0.2032101223
C        0.8587774821   -3.0769054239   -1.0991457625
C       -0.8533465756   -0.9348766643   -0.5749715807
C        1.2182053539   -1.7879410669   -1.5003230273
C        4.8326525793   -0.5120539806    0.9589813858
C        5.0447339360   -0.3506287378   -0.4117817866
C        3.5960104341   -0.0941474041    1.4527249902
C        0.3690273701   -0.7074630603   -1.2214532625
C        2.9722387431    0.5444880591   -0.6355912403
C        1.9389454069    1.2235813478   -1.5183470922
N        4.1215156230    0.1853090064   -1.2199176067
N        2.6521211922    0.4283033911    0.6592947662
N        0.7122494133    0.6151763801   -1.6071579474
O        2.1838808711    2.2988922797   -2.0514000598
H       -0.6413941370   -4.3113047847   -0.1538381887
H       -2.1704222913   -2.3958692302    0.2966261668
H        1.5254535689   -3.9079747380   -1.3141417203
H       -1.5024162187   -0.0924876986   -0.3498329985
H        2.1445343439   -1.6221848491   -2.0412846509
H        5.5895091001   -0.9439853457    1.6064205869
H        5.9793089641   -0.6576427232   -0.8790777014
H        3.3479142803   -0.1835319559    2.5092258123
H        0.0076531959    1.1779817106   -2.0734744561
24   
Generated by ForceBalance from scan.xyz: Frame 12 of 24
C       -0.3529382832   -3.3065068257   -0.4027373474
C       -1.2212348552   -2.2253217750   -0.2165365349
C        0.8775357908   -3.1018868382   -1.0353344407
C       -0.8533341347   -0.9458228546   -0.6379965984
C        1.2403292971   -1.8303307693   -1.4851330967
C        4.8145732735   -0.5652117576    0.9288125658
C        5.0087612085   -0.3764388221   -0.4408031022
C        3.5886021360   -0.1479980855    1.4494425211
C        0.3811702201   -0.7437629991   -1.2689368862
C        2.9400731531    0.5402278139   -0.6147842335
C        1.8960774661    1.2453061644   -1.4627655046
N        4.0764430303    0.1819785251   -1.2239844907
N        2.6385002820    0.4014268617    0.6820995326
N        0.7330372904    0.5598045371   -1.7118907754
O        2.0909794566    2.3839075810   -1.8692724497
H       -0.6366193941   -4.2996911170   -0.0655922988
H       -2.1807527789   -2.3740034990    0.2716435830
H        1.5506578461   -3.9389880345   -1.2011378717
H       -1.5114369402   -0.0981287678   -0.4639221468
H        2.1756476761   -1.6803811267   -2.0149175761
H        5.5770356891   -1.0167385312    1.5559569293
H        5.9343718142   -0.6795724372   -0.9280327071
H        3.3548501345   -0.2593420064    2.5071100992
H        0.0082583098    1.1323167412   -2.1338461221
24   
Generated by ForceBalance from scan.xyz: Frame 13 of 24
C       -1.2852098621   -1.1766293776   -1.3088723980
C       -1.2851827577   -2.0596682916   -0.2233857257
C       -0.0806790292   -0.8782702884   -1.9535914176
C       -0.0894292778   -2.6208451699    0.2288240936
C        1.1158375715   -1.4586711669   -1.5258980247
C        3.7638816348    1.8517871186    0.1364764628
C        4.4194819200    1.0772740675   -0.8228346320
C        3.0103604954    1.1619544104    1.0872504403
C        1.1162782753   -2.3190112400   -0.4184968311
C        3.5897258063   -0.8109794161    0.1229819889
C        3.5510476032   -2.3288320771    0.1767604165
N        4.3450975358   -0.2595657107   -0.8345212256
N        2.9087531085   -0.1734324647    1.0833645878
N        2.3177418978   -2.9158218496    0.0465501449
O        4.5689547053   -2.9709836305    0.4046432312
H       -2.2152666447   -0.7326045294   -1.6529823684
H       -2.2157968589   -2.3001659399    0.2838063830
H       -0.0724055638   -0.2079787956   -2.8091487677
H       -0.0811528067   -3.2785387999    1.0943005650
H        2.0411789848   -1.2594245486   -2.0571469537
H        3.8338168627    2.9351413875    0.1399618713
H        5.0219783036    1.5368966723   -1.6050204216
H        2.4672423168    1.6882776223    1.8706654287
H        2.3133158084   -3.9116003942    0.2441450219
24   
Generated by ForceBalance from scan.xyz: Frame 14 of 24
C       -1.2924834264   -1.2389406202   -1.3508345307
C       -1.2982392794   -2.0653344014   -0.2213350061
C       -0.0830357878   -0.9642021032   -1.9963979792
C       -0.1035324534   -2.5931803467    0.2713580338
C        1.1127337049   -1.5132854931   -1.5264875702
C        3.8366194635    1.8524308730    0.1880909798
C        4.4860843330    1.0999560595   -0.7930140687
C        3.0650285013    1.1427842380    1.1091318088
C        1.1074799616   -2.3183758836   -0.3782461097
C        3.6209301357   -0.8063291304    0.0833516218
C        3.5618915036   -2.3252799712    0.0779862856
N        4.3920140723   -0.2339370441   -0.8494568495
N        2.9413262601   -0.1897119918    1.0586201707
N        2.3065321826   -2.8836978423    0.1343991468
O        4.5868288227   -2.9921966378    0.1408448401
H       -2.2217064166   -0.8202426278   -1.7274047792
H       -2.2326782667   -2.2861584342    0.2878322505
H       -0.0694901795   -0.3376222445   -2.8844045952
H       -0.0986328036   -3.2044025204    1.1700957191
H        2.0414448328   -1.3322448707   -2.0588806858
H        3.9240746942    2.9337595529    0.2290750188
H        5.1004967349    1.5761164351   -1.5558298210
H        2.5248881339    1.6507273335    1.9066548623
H        2.3245281801   -3.8894073405    0.2757904045
24   
Generated by ForceBalance from scan.xyz: Frame 15 of 24
C       -1.4163154112   -1.3088472832   -1.4053637122
C       -1.4374142062   -2.0799433115   -0.2372291812
C       -0.1954348665   -1.0432056734   -2.0323249646
C       -0.2476483218   -2.5620587858    0.3104771207
C        0.9971308882   -1.5474577752   -1.5061954738
C        3.8592536232    1.8588981886    0.3052312304
C        4.4869115478    1.1184471179   -0.6992373266
C        3.0523323332    1.1463766672    1.1929273836
C        0.9749311722   -2.2992731389   -0.3226292102
C        3.5444593337   -0.7851733324    0.1018453313
C        3.4305412842   -2.3000637823    0.0333368704
N        4.3427052272   -0.2073516626   -0.8051831817
N        2.8784216672   -0.1777428230    1.0921725538
N        2.1692142278   -2.8174405691    0.2559217079
O        4.4293301579   -3.0013944220   -0.0513392285
H       -2.3422510533   -0.9252512152   -1.8249452292
H       -2.3809130954   -2.2921702607    0.2587545352
H       -0.1690094604   -0.4585635206   -2.9482118583
H       -0.2547947302   -3.1283068413    1.2381516067
H        1.9352679019   -1.3730811847   -2.0246446008
H        3.9882390829    2.9337172505    0.3872975553
H        5.1239850657    1.5985977051   -1.4407120690
H        2.5240860603    1.6451354355    2.0041297632
H        2.1933540972   -3.8282618960    0.3642231838
24   
Generated by ForceBalance from scan.xyz: Frame 16 of 24
C       -1.5438159791   -1.4460812312   -1.4530233667
C       -1.5538054226   -2.1988066100   -0.2726029545
C       -0.3219527473   -1.1157412189   -2.0457285259
C       -0.3550387084   -2.5986514865    0.3190156404
C        0.8823238160   -1.5371875556   -1.4746924927
C        4.0226618034    1.8679510524    0.3914979613
C        4.6424117438    1.1129357712   -0.6073391523
C        3.1266592329    1.1900558998    1.2188258722
C        0.8698470924   -2.2736375931   -0.2812699000
C        3.5377526872   -0.7429019593    0.0963243324
C        3.3269075092   -2.2437382830   -0.0293686144
N        4.4110690534   -0.1953774031   -0.7596916448
N        2.8683347174   -0.1156947348    1.0720502014
N        2.0722694512   -2.7087414643    0.3502582981
O        4.2650281873   -2.9936657866   -0.2542821112
H       -2.4776127096   -1.1273211569   -1.9078100187
H       -2.4974419878   -2.4616664052    0.1983217228
H       -0.3016549834   -0.5446318577   -2.9702878527
H       -0.3580047720   -3.1512310483    1.2550741580
H        1.8219974751   -1.3131550909   -1.9711234961
H        4.2222946892    2.9282029721    0.5124859531
H        5.3433471042    1.5673174229   -1.3062689053
H        2.5945330289    1.7029405613    2.0186026906
H        2.1112307058   -3.7188230970    0.4726022900
24   
Generated by ForceBalance from scan.xyz: Frame 17 of 24
C       -1.6243573588   -1.6196920285   -1.4824457719
C       -1.5567107367   -2.3966810036   -0.3197777452
C       -0.4439015605   -1.1211881701   -2.0400746189
C       -0.3277837699   -2.6566979700    0.2868136588
C        0.7950355671   -1.3962163427   -1.4542039341
C        4.2735262354    2.0239276929    0.3744670504
C        4.9261820369    1.2262416105   -0.5692230992
C        3.2514444560    1.4149775671    1.1036078729
C        0.8564497965   -2.1625192445   -0.2811189576
C        3.6260318253   -0.5438408492    0.0119927384
C        3.3183245705   -2.0236839699   -0.1523339025
N        4.6103247630   -0.0589336170   -0.7577113428
N        2.9148701883    0.1318025281    0.9239856884
N        2.0895900283   -2.4511965271    0.3742720540
O        4.1830194897   -2.8106149637   -0.5004931671
H       -2.5829961236   -1.4126242006   -1.9497798932
H       -2.4662327794   -2.7915772496    0.1254666813
H       -0.4803430647   -0.5280220765   -2.9501564515
H       -0.2785662765   -3.2334375575    1.2073302903
H        1.7045757341   -1.0357028696   -1.9258061061
H        4.5414856194    3.0651046551    0.5253447055
H        5.7227128678    1.6277311902   -1.1942025467
H        2.6814516159    1.9660316386    1.8501427329
H        2.1695875781   -3.4514161156    0.5525756300
24   
Generated by ForceBalance from scan.xyz: Frame 18 of 24
C       -1.6414178083   -1.7583457901   -1.6711768442
C       -1.4075517638   -1.7156586320   -0.2931517282
C       -0.5876017339   -2.0844581703   -2.5322422337
C       -0.1356717063   -1.9841742180    0.2189055439
C        0.6840643138   -2.3719269714   -2.0312498675
C        4.2650578106    1.7792076197    0.9093041964
C        4.7630681163    1.3669574214   -0.3299805053
C        3.4575608131    0.8696312252    1.5916813193
C        0.9161708395   -2.3121488620   -0.6488452138
C        3.6883417609   -0.6209479707   -0.1205344183
C        3.3132973519   -1.9729540252   -0.7216901585
N        4.4908324953    0.1642240546   -0.8470104695
N        3.1571158669   -0.3295481677    1.0778321058
N        2.2057604192   -2.6144860763   -0.1023632210
O        3.8360889318   -2.3852286450   -1.7343464490
H       -2.6301841597   -1.5448974581   -2.0676463440
H       -2.2149694166   -1.4650474270    0.3902776156
H       -0.7568652787   -2.1283584614   -3.6051671224
H        0.0441339915   -1.9328988559    1.2905751930
H        1.4939577371   -2.6459646464   -2.6995276831
H        4.4969188193    2.7564215979    1.3208521715
H        5.4033192627    2.0169465783   -0.9246266699
H        3.0365433585    1.1027738318    2.5680776715
H        2.1922239974   -2.3224924203    0.8743929715
24   
Generated by ForceBalance from scan.xyz: Frame 19 of 24
C       -1.8218938676   -2.0160826069   -1.7289859230
C       -1.5853494519   -1.8629059847   -0.3591432646
C       -0.7492836434   -2.3029434894   -2.5803675956
C       -0.2914603303   -1.9844175389    0.1522493771
C        0.5471870788   -2.4425949243   -2.0794311846
C        4.5296575609    1.7443549006    1.0033786270
C        4.9838369083    1.3374606880   -0.2543585296
C        3.6279068317    0.8960484713    1.6451247038
C        0.7810374226   -2.2669582046   -0.7071341820
C        3.7021236202   -0.5318673041   -0.1354705185
C        3.1823942765   -1.8029505481   -0.8035704936
N        4.5853835768    0.1964494840   -0.8263679256
N        3.2039822163   -0.2397568164    1.0773177828
N        2.0892548158   -2.3959252330   -0.1480020173
O        3.5962840450   -2.1644507035   -1.8879741998
H       -2.8284187693   -1.9186528078   -2.1262064361
H       -2.4074564550   -1.6416665427    0.3167932557
H       -0.9216419052   -2.4329027459   -3.6457983432
H       -0.1105873883   -1.8507400943    1.2167949755
H        1.3748292732   -2.6850397640   -2.7366090681
H        4.8637822577    2.6711726860    1.4587970581
H        5.6930223656    1.9408737332   -0.8191978789
H        3.2312016471    1.1275825756    2.6320628491
H        2.0657707714   -2.0526745402    0.8109638266
24   
Generated by ForceBalance from scan.xyz: Frame 20 of 24
C       -1.9377718617   -2.2652525507   -1.7633257955
C       -1.7183138305   -2.0151903139   -0.4045616110
C       -0.8410185772   -2.4834920883   -2.6035474162
C       -0.4191678381   -1.9743549366    0.1041876328
C        0.4643129863   -2.4590833229   -2.1059114292
C        4.7778762297    1.7159438108    1.1014315214
C        5.1889565288    1.3186960768   -0.1739378816
C        3.7890588657    0.9416437004    1.7075516615
C        0.6781189520   -2.1851084136   -0.7460105302
C        3.7151306268   -0.4075903450   -0.1340928168
C        3.0700438557   -1.5879988136   -0.8577909322
N        4.6712740258    0.2533926969   -0.7946242220
N        3.2489268699   -0.1171160037    1.0921531594
N        1.9829798391   -2.1356574474   -0.1806324364
O        3.4180486111   -1.9121645263   -1.9800808699
H       -2.9490527576   -2.2956161343   -2.1593186656
H       -2.5588224345   -1.8459956362    0.2636350395
H       -0.9993629409   -2.6879391037   -3.6594021926
H       -0.2533227503   -1.7692376339    1.1599086385
H        1.3123836673   -2.6458926043   -2.7536159279
H        5.2080802976    2.5807218902    1.5964442298
H        5.9601262555    1.8668470727   -0.7134113061
H        3.4161176125    1.1714188257    2.7041410058
H        1.9470116255   -1.7633696166    0.7664478645
24   
Generated by ForceBalance from scan.xyz: Frame 21 of 24
C       -1.9873477190   -2.4941704409   -1.7837560971
C       -1.7985529867   -2.1553701108   -0.4393509347
C       -0.8725624953   -2.6320959015   -2.6165757698
C       -0.5128433222   -1.9496809054    0.0613963697
C        0.4220917792   -2.4394823422   -2.1270845207
C        4.9993247178    1.6765676126    1.1888232720
C        5.3751347718    1.2883823470   -0.1000139027
C        3.9268423058    0.9903937294    1.7578634029
C        0.6033662290   -2.0789264185   -0.7820501245
C        3.7262867205   -0.2713156203   -0.1363233137
C        2.9731500706   -1.3532431380   -0.9081606026
N        4.7507176913    0.3117195648   -0.7666871213
N        3.2833200093    0.0196745839    1.0986974967
N        1.8843567565   -1.8555646698   -0.2179056005
O        3.2793487582   -1.6513909797   -2.0521276623
H       -2.9887347407   -2.6537783364   -2.1738743669
H       -2.6534453412   -2.0468111268    0.2230991287
H       -1.0062290654   -2.9032849956   -3.6607465509
H       -0.3717042279   -1.6791395187    1.1059928260
H        1.2852226259   -2.5595075018   -2.7692475413
H        5.5161542298    2.4690121969    1.7206750553
H        6.2051410381    1.7714311308   -0.6138060762
H        3.5702948872    1.2208918004    2.7602915963
H        1.8412359537   -1.4642468669    0.7207641305
24   
Generated by ForceBalance from scan.xyz: Frame 22 of 24
C       -2.0067315307   -2.7121469511   -1.7765958242
C       -1.8552080151   -2.2956751269   -0.4491855622
C       -0.8849717648   -2.7578093487   -2.6098412940
C       -0.6000528824   -1.9255177681    0.0324063179
C        0.3808842793   -2.3968473240   -2.1404501717
C        5.1730227288    1.6028275015    1.2611307740
C        5.5271878878    1.2102900567   -0.0322859672
C        4.0214533801    1.0233665154    1.7933761169
C        0.5238689049   -1.9643414420   -0.8114401335
C        3.7200067124   -0.1597577531   -0.1380502881
C        2.8746421474   -1.1417871574   -0.9472886167
N        4.8112015006    0.3272755589   -0.7367938861
N        3.2893528600    0.1452460846    1.0983224213
N        1.7646041654   -1.5750957215   -0.2593043237
O        3.1629662468   -1.4389266682   -2.0979262171
H       -2.9842197231   -3.0007844026   -2.1529816440
H       -2.7153867685   -2.2563070411    0.2140957324
H       -0.9894217265   -3.0857181578   -3.6409770962
H       -0.4880420292   -1.5982878613    1.0643247253
H        1.2489551627   -2.4417908081   -2.7846381834
H        5.7632665112    2.3194447894    1.8232849310
H        6.4140833274    1.6130475233   -0.5195995313
H        3.6730112175    1.2660896652    2.7958078927
H        1.7100221773   -1.1816801551    0.6769624463
24   
Generated by ForceBalance from scan.xyz: Frame 23 of 24
C       -1.9988997905   -2.9042306402   -1.7606744388
C       -1.8840969464   -2.4122312508   -0.4554959450
C       -0.8846375948   -2.8667662051   -2.6040996018
C       -0.6723344706   -1.8891052310   -0.0070407582
C        0.3382949290   -2.3489948109   -2.1689567515
C        5.2991631477    1.4957108581    1.2984371175
C        5.6324856069    1.1027001492   -0.0001565041
C        4.0851315239    1.0239467792    1.7975596579
C        0.4453749586   -1.8481416236   -0.8601552950
C        3.6986010054   -0.0747166808   -0.1683814332
C        2.7783668115   -0.9572130985   -1.0097602635
N        4.8415326615    0.3171908423   -0.7393756190
N        3.2805162761    0.2412410732    1.0698510212
N        1.6352937381   -1.3043202745   -0.3367538280
O        3.0619467755   -1.2714737184   -2.1581408340
H       -2.9423628808   -3.3123933218   -2.1124326361
H       -2.7387822076   -2.4341689395    0.2156113430
H       -0.9611176892   -3.2491848278   -3.6187783486
H       -0.5883899060   -1.5056935388    1.0081032462
H        1.1992953461   -2.3258150962   -2.8230801936
H        5.9496852917    2.1335246206    1.8883326961
H        6.5634067578    1.4256986402   -0.4642085533
H        3.7453658903    1.2770878260    2.8004173578
H        1.5819749008   -0.9173193388    0.6015423410
24   
Generated by ForceBalance from scan.xyz: Frame 24 of 24
C       -1.9242546649   -3.0613499803   -1.6845154278
C       -1.8503387982   -2.4978815751   -0.4054745630
C       -0.8302966521   -2.9400217647   -2.5462942537
C       -0.6992785230   -1.8250521917    0.0007569348
C        0.3313119252   -2.2687780125   -2.1550291938
C        5.3698773772    1.4177010242    1.4092323189
C        5.7037097354    1.0266502122    0.1102316279
C        4.1031579226    1.0499850022    1.8629681048
C        0.3998774579   -1.7048392167   -0.8692074391
C        3.6772247629    0.0345795738   -0.1396525409
C        2.7120341676   -0.7539484815   -1.0228795244
N        4.8657719473    0.3360223943   -0.6708189130
N        3.2534268377    0.3593797643    1.0945424042
N        1.5263574879   -1.0116421016   -0.3878143020
O        3.0113493949   -1.0930645980   -2.1606193456
H       -2.8208186922   -3.5861577775   -2.0026612494
H       -2.6904497839   -2.5816245392    0.2790060491
H       -0.8754381278   -3.3733185493   -3.5422385418
H       -0.6472513221   -1.3888135587    0.9965518786
H        1.1753082343   -2.1773403439   -2.8248879152
H        6.0589237126    1.9779622992    2.0331436332
H        6.6732633103    1.2737247527   -0.3201448300
H        3.7581106262    1.3119217010    2.8617793627
H        1.4747098286   -0.6432137915    0.5578270397
