49

C     -0.38578    0.27174    0.28579
C      2.09204   -6.42666   -4.01542
C      1.87279   -6.01296   -2.69780
C     -1.28551   -1.96929   -0.17170
C      1.11116   -1.57613   -0.31817
C     -0.18823   -1.10644   -0.06748
C     -0.42121   -5.42220   -3.28971
C     -1.09739   -3.31215   -0.50940
C      1.08731   -6.35427   -4.97732
C      0.62864   -5.51754   -2.34466
C      0.20073   -3.78629   -0.75362
C      1.30405   -2.91164   -0.66606
C     -0.17628   -5.84977   -4.61097
C     -1.66858   -4.74545   -2.85299
C     -2.30514   -4.21920   -0.64106
C      0.26645  -10.28085   -8.00166
C      0.00977   -7.98400   -9.02005
C     -2.48810   -6.07940   -5.35889
C      0.69298   -8.25295   -6.57276
C      1.31074   -6.85421   -6.38940
C      0.77847   -8.83288   -7.99619
N     -0.54059    1.38968    0.57646
O     -2.23147   -3.83568   -3.42649
O      0.44897   -5.12128   -1.01314
O     -2.07666   -5.22967   -1.63623
O      2.53698   -3.44128   -0.91671
O      2.72743   -6.87483   -6.62300
O     -1.10065   -5.82796   -5.61593
H      3.06325   -6.80613   -4.31338
H      2.65710   -6.03965   -1.95001
H     -2.28784   -1.58550   -0.00885
H      1.95739   -0.89813   -0.23946
H     -2.48634   -4.77663    0.28091
H     -3.19254   -3.62772   -0.88341
H     -0.78934  -10.31963   -7.70673
H      0.35053  -10.72762   -8.99840
H      0.83162  -10.90605   -7.30198
H     -1.04893   -7.91168   -8.74326
H      0.39889   -6.96365   -9.09565
H      0.06445   -8.43185  -10.01819
H     -2.86584   -6.59686   -6.24387
H     -3.03002   -5.14396   -5.21119
H     -2.61438   -6.72287   -4.48135
H     -0.36065   -8.20592   -6.27555
H      1.19638   -8.92822   -5.87040
H      0.83541   -6.14976   -7.08103
H      1.83585   -8.86735   -8.30057
H      3.20323   -2.73666   -0.87209
H      2.87035   -7.17180   -7.53434
