22

C     -0.06917   -3.38308    0.55708
C      3.43168   -2.98221   -0.73173
C     -0.52373   -2.08584    0.51188
C      3.88945   -4.27954   -0.68764
C      1.61864   -1.33183   -0.35695
C      1.74480   -5.04079    0.18313
C      2.10983   -2.65806   -0.32001
C      1.25482   -3.71270    0.14547
C      0.32744   -1.04118    0.04932
C      3.03547   -5.31824   -0.22504
C     -0.12481    0.36914   -0.01450
O      0.54872    1.31115   -0.39861
O      3.46481   -6.61946   -0.17039
O     -1.41093    0.53730    0.40925
H     -0.72160   -4.17761    0.91065
H      4.08440   -2.18811   -1.08534
H     -1.53294   -1.84454    0.82719
H      4.90368   -4.51640   -1.00542
H      2.25470   -0.52353   -0.70695
H      1.11257   -5.85225    0.53230
H      4.38173   -6.66890   -0.48357
H     -1.59322    1.49219    0.32269
