22

C     -0.07243   -3.33198    0.55037
C      3.44159   -3.01229   -0.73029
C     -0.49940   -2.02625    0.49449
C      3.87664   -4.31452   -0.67779
C      1.66004   -1.32068   -0.37259
C      1.71353   -5.02797    0.19181
C      2.12308   -2.65750   -0.32444
C      1.24563   -3.68897    0.14503
C      0.37237   -1.00274    0.02827
C      3.00055   -5.33197   -0.21101
C     -0.14283    0.38579   -0.00975
O     -1.26430    0.72624    0.32930
O      3.51527   -6.60168   -0.19152
O      0.76882    1.29049   -0.47128
H     -0.74289   -4.11005    0.90751
H      4.11001   -2.23250   -1.08698
H     -1.50232   -1.74783    0.80185
H      4.87941   -4.59604   -0.98462
H      2.32426   -0.53904   -0.72810
H      1.04688   -5.81202    0.54855
H      2.84057   -7.21536    0.14124
H      0.31567    2.15443   -0.44855
