32

C     -0.08804    1.76479   -3.80705
C     -1.72329    0.00485   -4.21543
C     -0.69882    2.55998   -4.77820
C     -2.33801    0.79830   -5.18426
C     -0.61081    0.50049   -3.53118
C     -1.82138    2.07032   -5.45220
C     -0.76643   -1.27356    0.26484
C      0.34765    1.88039    0.19757
C      0.97153    1.16568    1.40216
C     -0.95473    1.26440   -0.33273
C      1.43314   -0.26794    1.11735
C     -0.94348   -0.19505   -0.81785
N      0.33897   -1.24599    1.05615
O     -1.65365   -2.11270    0.41003
O     -0.02081   -1.92853   -2.63799
O      1.50529    0.02709   -2.01766
S      0.15806   -0.51998   -2.26488
Cl    -2.59248    3.06760   -6.66620
H      0.79553    2.11133   -3.28034
H     -2.08969   -0.99607   -4.00659
H     -0.30768    3.54433   -5.01429
H     -3.20101    0.43394   -5.73201
H      0.11995    2.91415    0.48277
H      1.08780    1.92997   -0.60520
H      1.84936    1.74003    1.72132
H      0.27201    1.15632    2.24784
H     -1.72049    1.30385    0.45238
H     -1.33278    1.88617   -1.15148
H      2.02104   -0.30063    0.19702
H      2.08087   -0.60582    1.93000
H     -1.92543   -0.42712   -1.23576
H      0.33759   -1.99452    1.73951
