32

C      2.24717   -0.09737   -3.53856
C      2.45638    2.15517   -2.62795
C      3.59203   -0.07106   -3.90556
C      3.80498    2.17968   -2.98729
C      1.69757    1.01287   -2.89387
C      4.35809    1.06294   -3.61889
C      0.17002   -1.14543   -0.66539
C      0.02328    1.16175    1.68108
C     -0.11448   -0.21230    2.35033
C      0.63776    1.17061    0.27202
C     -0.99600   -1.20834    1.58168
C     -0.17486    0.34054   -0.73742
N     -0.34803   -1.80514    0.41126
O      0.89084   -1.70702   -1.48653
O     -0.44436    2.42995   -2.30671
O     -0.77686    0.12040   -3.35345
S     -0.04366    1.01693   -2.45200
Cl     6.05096    1.08939   -4.07229
H      1.63080   -0.96484   -3.73940
H      1.99096    3.02199   -2.17070
H      4.04285   -0.92069   -4.40794
H      4.41442    3.05629   -2.79320
H     -0.96768    1.63139    1.62748
H      0.63375    1.80739    2.32223
H      0.87326   -0.66400    2.50386
H     -0.55500   -0.06707    3.34397
H      0.66004    2.20703   -0.07424
H      1.67052    0.80660    0.29178
H     -1.26851   -2.04014    2.23551
H     -1.93736   -0.73075    1.28300
H     -1.24629    0.49459   -0.56318
H     -0.02233   -2.76288    0.48358
