25   

C        0.0068803543   -0.0810819980    1.3459008268
C        1.6315915788   -0.6648274863    2.9781618795
C       -0.8535718681   -1.0031497473    1.9414222815
C        1.2903646388    0.0991544980    1.8649608425
C        0.7114609255   -1.5718247273    3.5098645662
C        2.3068155728    1.0640187604    1.3402247223
C        2.8336458006    4.1089758029    0.8928314689
C        2.3050044809   -2.4958920303    5.2195317496
C        2.6594766526    2.9351757328   -0.0658273787
N       -0.5059795350   -1.7384554729    3.0068043114
N        0.9822360740   -2.3719281361    4.5945042935
O        3.4815459138    1.0179538589    1.6971550403
O        1.7633965729    1.9602501259    0.4871598488
H       -0.3312173847    0.4860001018    0.4874228645
H        2.6076863833   -0.5615602053    3.4313667933
H       -1.8459644415   -1.1317050486    1.5250634554
H        1.8632490268    4.5666934803    1.1069456411
H        3.2856276653    3.7729917632    1.8309995854
H        3.4869401283    4.8621235084    0.4427673906
H        3.0576326512   -2.7700249572    4.4726687673
H        2.2829549069   -3.2792427448    5.9837900876
H        2.5914537237   -1.5549730427    5.7006519609
H        3.6356504933    2.4913430970   -0.2915582788
H        2.2423412955    3.3015892059   -1.0090685804
H        0.2079576881   -2.9812747197    4.8332250280
25   

C       -0.0024658053   -0.1855624523    1.2506520202
C        1.6132868913   -0.6612449422    2.9260970329
C       -0.8582974629   -1.0839518433    1.8878657906
C        1.2749854004    0.0322566773    1.7672048216
C        0.6986060130   -1.5484912665    3.4987577052
C        2.2751099011    0.9929847864    1.2060392413
C        2.9399153550    4.0421274410    1.0446187086
C        2.2868281380   -2.3591709087    5.2692586416
C        2.5523383393    3.0061494586   -0.0058420339
N       -0.5119844698   -1.7569809340    2.9943521899
N        0.9676015335   -2.2826221825    4.6294308589
O        3.4802312083    0.8495039960    1.3947143155
O        1.6782889778    2.0174135929    0.5575825281
H       -0.3372309891    0.3365515424    0.3628706912
H        2.5846056902   -0.5170503868    3.3784085993
H       -1.8460848395   -1.2447339678    1.4717606471
H        2.0430504302    4.5190937671    1.4509955808
H        3.4953668876    3.5702026439    1.8607343585
H        3.5734861302    4.8104845677    0.5920577992
H        3.0481918982   -2.6626606343    4.5428806506
H        2.2675928794   -3.1024400717    6.0726287512
H        2.5590273455   -1.3915322871    5.7033338288
H        3.4543457114    2.5440476920   -0.4226655881
H        2.0328630389    3.5071432554   -0.8287203800
H        0.1986079199   -2.8882617114    4.8934231395
25   

C       -0.0021573865   -0.2886244661    1.1555712545
C        1.6014939278   -0.6426243889    2.8713682775
C       -0.8464500791   -1.1728794418    1.8272960105
C        1.2641710229   -0.0203196030    1.6729261234
C        0.6994938547   -1.5202531549    3.4779180895
C        2.2388730825    0.9462395074    1.0763455470
C        3.0669146394    3.9589602445    1.1817643986
C        2.2831568034   -2.2060963425    5.3040829981
C        2.4691805659    3.0817327237    0.0863135147
N       -0.4994290177   -1.7818367394    2.9702524613
N        0.9696525076   -2.1883039448    4.6485062393
O        3.4468735827    0.7278403788    1.0820502404
O        1.6224066748    2.0714178149    0.6528364361
H       -0.3360475724    0.1858788748    0.2412525621
H        2.5641438464   -0.4500674435    3.3239281286
H       -1.8257675851   -1.3751243884    1.4092653952
H        2.2688943330    4.4218880309    1.7698588518
H        3.7012957590    3.3634983806    1.8452631762
H        3.6775526193    4.7480525676    0.7333694970
H        3.0586913988   -2.5265619030    4.6003431668
H        2.2710104279   -2.9113186585    6.1411921876
H        2.5298113763   -1.2135219154    5.6949404315
H        3.2718565690    2.6343154083   -0.5107223484
H        1.8715169477    3.7052996369   -0.5859655762
H        0.2112011223   -2.7980136824    4.9329654261
25   

C       -0.0108765653   -0.4012211229    1.0665662448
C        1.5751150576   -0.6201675352    2.8195098734
C       -0.8342051986   -1.2852233745    1.7643778661
C        1.2360438471   -0.0650175702    1.5894988981
C        0.6954027119   -1.5024031006    3.4516321180
C        2.1794534535    0.9113924770    0.9554244961
C        3.2269090139    3.8390058075    1.2785004804
C        2.2733127265   -2.0506829376    5.3287291854
C        2.4096026418    3.1389521826    0.1974172416
N       -0.4847646896   -1.8299565597    2.9385771271
N        0.9702888201   -2.1075722262    4.6548507794
O        3.3555588190    0.6294488607    0.7488126768
O        1.5883533516    2.1112718599    0.7700226404
H       -0.3455951533    0.0202953265    0.1270936143
H        2.5231796382   -0.3721135286    3.2752119991
H       -1.7984977121   -1.5414219536    1.3410376075
H        2.5618645654    4.2652766655    2.0354721485
H        3.9103512701    3.1325185249    1.7591347256
H        3.8172715746    4.6453121539    0.8335869727
H        3.0707692629   -2.3701772925    4.6494771334
H        2.2739132919   -2.7219661149    6.1933858419
H        2.4775439014   -1.0348584837    5.6825475315
H        3.0789784805    2.7286254663   -0.5671038856
H        1.7631467833    3.8724661462   -0.2945861121
H        0.2299922650   -2.7324867123    4.9539137154
25   

C       -0.0356938322   -0.5032010506    0.9955174315
C        1.5073228748   -0.5633423129    2.7973350023
C       -0.8241106374   -1.4123554994    1.7013168845
C        1.1693194218   -0.0679607045    1.5422480382
C        0.6649951793   -1.4768931553    3.4361058414
C        2.0741851249    0.9292091628    0.8797495816
C        3.3788902533    3.7274220954    1.3408464602
C        2.2236983530   -1.8757481860    5.3663335362
C        2.3405057119    3.2165352991    0.3469476892
N       -0.4778139225   -1.8933545205    2.9038162621
N        0.9426223926   -2.0258332844    4.6653641203
O        3.1685430787    0.6076392682    0.4290687513
O        1.5506166020    2.1719013569    0.9327287296
H       -0.3643227008   -0.1413055171    0.0295008151
H        2.4256171250   -0.2441969530    3.2687631509
H       -1.7565207947   -1.7442420199    1.2595222281
H        2.8849390241    4.0903912470    2.2470822855
H        4.0774148398    2.9289802380    1.6087994244
H        3.9460455899    4.5497560000    0.8950809180
H        3.0545072555   -2.1631922580    4.7132378027
H        2.2434428611   -2.5255029730    6.2470690085
H        2.3591464463   -0.8415428002    5.6992603416
H        2.8385915572    2.8697691284   -0.5655016184
H        1.6787585563    4.0412736991    0.0642388341
H        0.2336720984   -2.6863596385    4.9640317756
25   

C       -0.0350450094   -0.6214214358    0.9241987378
C        1.4465039748   -0.5115178132    2.7729245118
C       -0.7698952948   -1.5754854222    1.6283452892
C        1.1049630317   -0.0657313930    1.5003941698
C        0.6611543143   -1.4765358596    3.4088659199
C        1.9627876354    0.9576757738    0.8134414703
C        3.5371200118    3.5983220495    1.3240246184
C        2.1919556876   -1.7150846167    5.3875783868
C        2.2984089721    3.2756364311    0.4941290330
N       -0.4269577730   -1.9963439778    2.8539831693
N        0.9459305136   -1.9770111477    4.6570298401
O        2.9035927790    0.6344003527    0.0965405564
O        1.5505995361    2.2105863176    1.0979212205
H       -0.3526544781   -0.3205580653   -0.0661850022
H        2.3223345918   -0.1116954988    3.2627780770
H       -1.6539526613   -1.9970875624    1.1642114203
H        3.2462136570    3.8705998504    2.3429881218
H        4.2081021573    2.7347832943    1.3614498271
H        4.0761957446    4.4377803842    0.8753577839
H        3.0600259446   -1.9451459895    4.7607415272
H        2.2397522979   -2.3483474712    6.2791912899
H        2.2360798845   -0.6685986025    5.7064263422
H        2.5930455710    3.0201969277   -0.5299692037
H        1.6622881449    4.1646209497    0.4385937003
H        0.2837519961   -2.6871741758    4.9492755728
25   

C       -0.0277070509   -0.7187293742    0.8644961915
C        1.3754249784   -0.4491834931    2.7559473177
C       -0.6980841492   -1.7240513966    1.5612432104
C        1.0313365455   -0.0455824336    1.4697048514
C        0.6585230930   -1.4712848479    3.3836937536
C        1.8358574251    1.0114430516    0.7719612644
C        3.6636304827    3.4768746823    1.2804858225
C        2.1440303296   -1.5498637167    5.4095513552
C        2.2765734581    3.3321219149    0.6618514224
N       -0.3613864622   -2.0930080545    2.8050980523
N        0.9493016041   -1.9303832269    4.6462899863
O        2.5741002234    0.7392423714   -0.1686603715
O        1.5694971188    2.2396673084    1.2656115009
H       -0.3291970819   -0.4701628236   -0.1454339354
H        2.1987158578    0.0306110715    3.2646742649
H       -1.5219945747   -2.2331018124    1.0746531353
H        3.5791404174    3.6306266445    2.3604481658
H        4.2619959764    2.5803347714    1.0918410432
H        4.1782497583    4.3366102845    0.8416337197
H        3.0479778273   -1.7095393668    4.8122540152
H        2.2201217260   -2.1656054476    6.3114174827
H        2.0855142169   -0.4998117391    5.7140203751
H        2.3646623402    3.1958454271   -0.4218608465
H        1.7105531018    4.2537309391    0.8299848522
H        0.3430648976   -2.6922425706    4.9297276584
25   

C       -0.0086039626   -0.7793791422    0.8176301216
C        1.3109634356   -0.3814774233    2.7450938763
C       -0.6141701574   -1.8317468201    1.5037180274
C        0.9698053838   -0.0121552857    1.4471367435
C        0.6627041636   -1.4550453473    3.3615680764
C        1.7132082991    1.0875839118    0.7530705716
C        3.7586082994    3.3800027143    1.2212348008
C        2.0880057761   -1.3943870388    5.4311553956
C        2.2811259017    3.3824325247    0.8405216160
N       -0.2854765212   -2.1625300442    2.7602713441
N        0.9554112007   -1.8820968195    4.6349146477
O        2.2447582469    0.9101320181   -0.3381047641
O        1.6120859241    2.2560960688    1.4249874581
H       -0.2952027682   -0.5667086332   -0.2050205331
H        2.0782801439    0.1663193947    3.2725205600
H       -1.3769189269   -2.4118757920    0.9973584189
H        3.8661704284    3.3978174433    2.3099136325
H        4.2537048476    2.4873172643    0.8269288582
H        4.2513315234    4.2631543570    0.8043232550
H        3.0214124213   -1.4837631985    4.8653604652
H        2.1853585661   -1.9920333081    6.3430941275
H        1.9317157189   -0.3498362302    5.7196447374
H        2.1775475175    3.3824146409   -0.2503457401
H        1.8158673210    4.3006294567    1.2125993981
H        0.4052318556   -2.6887371882    4.9086561182
25   

C        0.0460175038   -0.8233056292    0.7748350801
C        1.2668838117   -0.3354897300    2.7450069431
C       -0.5027224909   -1.9199049797    1.4385714873
C        0.9446829862    0.0132579000    1.4358329513
C        0.6795990865   -1.4563598260    3.3381341413
C        1.6187093045    1.1674762983    0.7636076975
C        3.8305563095    3.3160051678    1.1465348696
C        2.0219019391   -1.2943026403    5.4574007788
C        2.3131558576    3.4149347098    1.0209282058
N       -0.1925138715   -2.2301987772    2.7047365129
N        0.9601848893   -1.8654840480    4.6200812871
O        1.9595849338    1.1094872553   -0.4137392550
O        1.6882116498    2.2482142631    1.5742785240
H       -0.2229523080   -0.6282783458   -0.2563445090
H        1.9732484841    0.2634640978    3.3013937953
H       -1.2035797814   -2.5524607527    0.9062042705
H        4.1138353563    3.1958794405    2.1964898869
H        4.2069321271    2.4625365678    0.5743028944
H        4.2958795658    4.2266568108    0.7582977132
H        2.9803657140   -1.3145170313    4.9279835951
H        2.1281386801   -1.8823302102    6.3745802100
H        1.7775771279   -0.2640163928    5.7359032306
H        2.0345522297    3.5527574417   -0.0298391512
H        1.9639909215    4.2954426706    1.5693466169
H        0.4610905553   -2.7105693525    4.8750640915
25   

C        0.0996738911   -0.8761712543    0.7511833921
C        1.2213561849   -0.3218557174    2.7609736049
C       -0.3999545755   -2.0086550986    1.3924179401
C        0.9256943321    0.0121473110    1.4410200236
C        0.6867554268   -1.4808247330    3.3307469526
C        1.5266111330    1.2178166999    0.7911165458
C        3.8713519075    3.2486366940    1.0126192062
C        1.9345340817   -1.2390341206    5.5002677529
C        2.3601009512    3.4029720759    1.1550618105
N       -0.1120563964   -2.3057487697    2.6665214531
N        0.9475298296   -1.8771954474    4.6209403226
O        1.6811402353    1.2744422477   -0.4252512918
O        1.7815435498    2.2016743472    1.6846133256
H       -0.1533629449   -0.6918550540   -0.2861736119
H        1.8679911314    0.3132864464    3.3488677782
H       -1.0432732534   -2.6801133917    0.8356106835
H        4.3178616218    3.0083535243    1.9821307438
H        4.1091620082    2.4514066381    0.3017193154
H        4.3074238373    4.1823345378    0.6457511112
H        2.9134569308   -1.1974595938    5.0110838857
H        2.0399621786   -1.8191550680    6.4225588630
H        1.6131622068   -0.2266543667    5.7659261714
H        1.9190576682    3.6608067506    0.1856507646
H        2.1465157935    4.2289923981    1.8406471206
H        0.4929403517   -2.7523124257    4.8571036526
25   

C        0.1840437724   -0.9004589196    0.7300061012
C        1.1930840094   -0.3049847980    2.7862085373
C       -0.2740476498   -2.0666857901    1.3404058881
C        0.9360440605    0.0249057155    1.4567222080
C        0.7042530372   -1.4993529013    3.3237161999
C        1.4674248711    1.2804174288    0.8405157902
C        3.9019916341    3.2224377093    0.8634507809
C        1.8449794173   -1.2102394657    5.5461853021
C        2.4412601390    3.3950783066    1.2686289550
N       -0.0180672158   -2.3618532456    2.6212918557
N        0.9331524426   -1.8934628558    4.6207090203
O        1.4447072848    1.4499732359   -0.3752262054
O        1.9096351660    2.1599118889    1.7689637425
H       -0.0468804034   -0.7177243998   -0.3128778244
H        1.7742425815    0.3554337889    3.4130211634
H       -0.8584303687   -2.7657725496    0.7534384679
H        4.4907570751    2.8753021224    1.7177877716
H        3.9899737118    2.4962297079    0.0496030055
H        4.3081206702    4.1786190730    0.5209139245
H        2.8398598131   -1.1098111475    5.0995994199
H        1.9433488761   -1.7925685113    6.4678599597
H        1.4568188565   -0.2198231610    5.8053716978
H        1.8587476786    3.7596021003    0.4150485249
H        2.3742815877    4.1522213207    2.0561508848
H        0.5191828808   -2.7950500051    4.8305062832
25   

C       -0.2165355245   -0.1450523977    1.1671078350
C        1.6037171909   -0.9779460576    2.4288019946
C       -1.0725457397   -0.6644295617    2.1364777565
C        1.1663382290   -0.2939569980    1.2958189243
C        0.6809504601   -1.4630802490    3.3603947546
C        2.1228154593    0.2448069853    0.2788622929
C        4.7248571014    1.9348506673   -0.0428115470
C        2.4251309912   -2.2690240740    4.9830514878
C        4.4007574980    0.4708908381   -0.3241104071
N       -0.6293717572   -1.3147499661    3.2197488245
N        1.0438404577   -2.1312368585    4.5057536465
O        1.7210500468    0.8448500405   -0.7141556889
O        3.4125524201   -0.0123886527    0.5971802610
H       -0.6329993039    0.3739709364    0.3117973000
H        2.6571957813   -1.1409014917    2.6026438784
H       -2.1411791245   -0.5352737604    2.0095908510
H        3.8371901997    2.5579823355   -0.1882736631
H        5.0786444030    2.0507689505    0.9859765333
H        5.5068885290    2.2799064284   -0.7254105957
H        2.9026952708   -1.2867446780    5.0628277370
H        3.0034616931   -2.9048172630    4.3047657006
H        2.4305744372   -2.7313493554    5.9752654922
H        5.3107931002   -0.1263545273   -0.2097903875
H        4.0639253029    0.3569645941   -1.3606516258
H        0.2438689079   -2.3944704179    5.0705497840
25   

C       -0.2422358568   -0.2203956462    1.1243832259
C        1.6037034535   -0.9329982818    2.4227966294
C       -1.0812660502   -0.7914960662    2.0795589058
C        1.1442244831   -0.2867055744    1.2766654845
C        0.6966878878   -1.4741058757    3.3387403238
C        2.0854181185    0.3288016418    0.2899209015
C        4.8122249105    1.8146570271    0.0504839092
C        2.4582190675   -2.1555863436    4.9990816868
C        4.3351832111    0.4497364081   -0.4364518448
N       -0.6176372990   -1.4113991751    3.1723053850
N        1.0801138613   -2.1100898511    4.4956309918
O        1.6814431520    1.0949064504   -0.5802370070
O        3.3595006478   -0.0920785284    0.4652459360
H       -0.6738258461    0.2762342836    0.2633293763
H        2.6627656163   -1.0195227154    2.6169428620
H       -2.1534812399   -0.7281618731    1.9342991144
H        3.9808821060    2.5259728632    0.0696007722
H        5.2328936467    1.7289979123    1.0568350468
H        5.5837590439    2.2003695869   -0.6222093150
H        2.8697056519   -1.1440362156    5.0812747811
H        3.0890242092   -2.7561539950    4.3356279437
H        2.4749519614   -2.6112595963    5.9942446856
H        5.1891854034   -0.2332111654   -0.4834227946
H        3.9308300827    0.5369321095   -1.4511891466
H        0.2883032247   -2.4214250689    5.0473123136
25   

C       -0.2565974454   -0.2887257335    1.0772263728
C        1.5968584167   -0.8835585500    2.4247445353
C       -1.0818249528   -0.9130460824    2.0113279015
C        1.1261735148   -0.2730978143    1.2641520783
C        0.7033468883   -1.4821346195    3.3174986267
C        2.0555403988    0.4204452873    0.3194364472
C        4.8863823162    1.6903011994    0.1066712686
C        2.4622123494   -2.0450775594    5.0239057755
C        4.2563362556    0.4658155087   -0.5503334493
N       -0.6076449882   -1.5042468204    3.1159271323
N        1.0970248308   -2.0891722521    4.4863601482
O        1.6649786991    1.3332110249   -0.4023310137
O        3.2908826578   -0.1320214487    0.3264492013
H       -0.6947608086    0.1875265242    0.2081435248
H        2.6553794722   -0.8941105693    2.6405726724
H       -2.1520945446   -0.9152592701    1.8402499429
H        4.1272450191    2.4548823477    0.2980736843
H        5.3571510154    1.4087179834    1.0533225883
H        5.6485012097    2.1152828747   -0.5529555256
H        2.8061597414   -1.0090878476    5.1119046816
H        3.1463652298   -2.6059081446    4.3787928292
H        2.4831981187   -2.4959607326    6.0211719390
H        5.0387785468   -0.2684561497   -0.7661674390
H        3.8013406488    0.7487407151   -1.5062037146
H        0.3132094970   -2.4496938575    5.0191931457
25   

C       -0.2467571157   -0.3616859626    1.0403240315
C        1.5955274571   -0.8465957482    2.4477772817
C       -1.0606360188   -1.0444664370    1.9434213038
C        1.1245164764   -0.2642390156    1.2737204557
C        0.7133950100   -1.5072009926    3.3071559032
C        2.0434978861    0.5074387316    0.3801788917
C        4.9563319948    1.5598117836    0.1289554388
C        2.4444126771   -1.9547948436    5.0742919016
C        4.1695988110    0.5163248063   -0.6586039890
N       -0.5860544768   -1.6126767261    3.0603711882
N        1.1063902317   -2.0932365911    4.4868251322
O        1.6822488249    1.5477843804   -0.1610089925
O        3.2170185075   -0.1383438967    0.1910952182
H       -0.6842383954    0.0974886392    0.1619841244
H        2.6460244224   -0.7859348983    2.6928082409
H       -2.1226519141   -1.1121872062    1.7378027947
H        4.2875067881    2.3408571495    0.5033314388
H        5.4643966539    1.0877717414    0.9752007481
H        5.7064489287    2.0253217475   -0.5169281821
H        2.7137684552   -0.8975847465    5.1696590459
H        3.1885819259   -2.4694711074    4.4577968053
H        2.4587711357   -2.4003739822    6.0740613955
H        4.8625965489   -0.2329172843   -1.0540328845
H        3.6766500178    0.9897387864   -1.5151132297
H        0.3297829964   -2.5049487431    4.9924487189
25   

C       -0.2263034855   -0.4371276127    1.0142892560
C        1.5843951871   -0.8080383827    2.4970110842
C       -1.0283564526   -1.1828074054    1.8777597235
C        1.1230993140   -0.2501357501    1.3081342066
C        0.7145782320   -1.5356805084    3.3135766215
C        2.0296696126    0.5950169907    0.4669097161
C        4.9956225754    1.4483949890    0.1025639078
C        2.3944690158   -1.8741780950    5.1525318130
C        4.0514176300    0.6176702390   -0.7613103482
N       -0.5629860380   -1.7279779574    3.0102805920
N        1.0973776630   -2.1042947720    4.5050493443
O        1.7184716920    1.7353830612    0.1391611479
O        3.1182500865   -0.0962882479    0.0616781194
H       -0.6566535181    0.0008429659    0.1220098865
H        2.6174548894   -0.6759086782    2.7840028210
H       -2.0737623584   -1.3208389860    1.6271424006
H        4.4363288563    2.2038116672    0.6629400171
H        5.5279614193    0.8016012745    0.8063975697
H        5.7279563915    1.9573681223   -0.5308251338
H        2.5843335165   -0.8010175268    5.2604115643
H        3.1999981664   -2.3331750265    4.5701367555
H        2.3950308036   -2.3210779818    6.1518170510
H        4.6358284041   -0.1048362624   -1.3396194244
H        3.5333145961    1.2662360369   -1.4766086463
H        0.3298981584   -2.5714485425    4.9752011561
25   

C       -0.1719767413   -0.4912873685    0.9950890643
C        1.5738987443   -0.7582040912    2.5761807842
C       -0.9692343248   -1.2985990981    1.8063566517
C        1.1409319227   -0.2152010615    1.3706004875
C        0.7103087580   -1.5513323799    3.3363599901
C        2.0469643606    0.6835808577    0.5815031330
C        5.0414053931    1.3253279544    0.0344901628
C        2.3014368820   -1.7958948507    5.2665000385
C        3.9361578439    0.7405536353   -0.8396119865
N       -0.5328162340   -1.8239380332    2.9597133961
N        1.0641609057   -2.1095885784    4.5416002241
O        1.8398861486    1.8893530406    0.4972629043
O        3.0159077256   -0.0191290977   -0.0433951811
H       -0.5786393532   -0.0778848531    0.0805594248
H        2.5788849015   -0.5626089626    2.9205069410
H       -1.9866044737   -1.5050756925    1.4948184409
H        4.6214961300    2.0203539566    0.7679934326
H        5.5678296643    0.5235720449    0.5609519733
H        5.7588222368    1.8684080437   -0.5875601082
H        2.4103966404   -0.7130777665    5.3890423294
H        3.1698911965   -2.1944405147    4.7320078860
H        2.2731445017   -2.2489365958    6.2626140785
H        4.3829140091    0.0791964675   -1.5886291297
H        3.4228684571    1.5448832389   -1.3784544385
H        0.3039306649   -2.6309116109    4.9641665780
25   

C       -0.0790564647   -0.5503168849    0.9641136377
C        1.5730880981   -0.7082871741    2.6583183946
C       -0.8699695813   -1.4172286100    1.7184250457
C        1.1784032318   -0.1785902047    1.4342456214
C        0.7183616043   -1.5652969231    3.3564815497
C        2.0927780181    0.7569022311    0.6967483108
C        5.0819674115    1.1859798257   -0.0732448328
C        2.1960781284   -1.7222173151    5.3831110376
C        3.8352677185    0.8762054427   -0.8960675281
N       -0.4761771532   -1.9183923194    2.8976957830
N        1.0324324664   -2.1123873186    4.5777655135
O        2.0508304003    1.9700487245    0.8701981278
O        2.9135645128    0.0826175792   -0.1352794962
H       -0.4475238743   -0.1692969550    0.0200214460
H        2.5393153014   -0.4500843266    3.0665223430
H       -1.8456146713   -1.6953705570    1.3370068723
H        4.8208155650    1.7792808468    0.8082937691
H        5.5598821366    0.2561257110    0.2492716506
H        5.7932758453    1.7564799041   -0.6775335995
H        2.2219181353   -0.6358255716    5.5190689534
H        3.1224718814   -2.0545456533    4.9034282328
H        2.1355167442   -2.1867473772    6.3724663548
H        4.1259013885    0.3167759069   -1.7908289934
H        3.3695013430    1.8097440210   -1.2313356954
H        0.2840803652   -2.6880682541    4.9476036636
25   

C       -0.1916876506    0.4776498194    1.9952032658
C        1.5950536691   -0.5203387440    3.1958135702
C       -0.9808968993   -0.6161656865    2.3511027615
C        1.1296548116    0.5444761474    2.4313202580
C        0.7421269858   -1.5840783591    3.5020307622
C        2.0642035502    1.6652146493    2.0816458433
C        2.5879704137    3.8704187526   -0.0467226213
C        2.5119690931   -2.9334695382    4.6712723152
C        3.3551894213    2.6098431306    0.3406598377
N       -0.5205166159   -1.6322345179    3.0943514110
N        1.1324112897   -2.6751360126    4.2414882789
O        2.4469761237    2.4727182975    2.9214852030
O        2.4514899346    1.5905213845    0.7904744583
H       -0.6101069331    1.2678448159    1.3847810470
H        2.6149118118   -0.5169050746    3.5525549489
H       -2.0089545335   -0.6484485179    2.0093746187
H        1.8570319593    3.6403732084   -0.8277007991
H        2.0660318613    4.2827885636    0.8221667203
H        3.2820791374    4.6261384563   -0.4257489175
H        3.1864683745   -2.9405900552    3.8085526260
H        2.5720118991   -3.9120114511    5.1582282855
H        2.8395579119   -2.1730328079    5.3876756232
H        4.0978490801    2.8479462748    1.1104035020
H        3.8987437596    2.2377223255   -0.5334526096
H        0.3886906424   -3.3544843107    4.3572791998
25   

C       -0.1111930839    0.4083998266    1.8778434443
C        1.6169818908   -0.5496494558    3.1933458803
C       -0.9240174681   -0.6627584718    2.2492682814
C        1.1903809309    0.4867981722    2.3689902084
C        0.7426907575   -1.5923740458    3.5105850586
C        2.1632637171    1.5647232543    1.9994691637
C        2.5815912245    3.9770380778    0.0847445492
C        2.4550554360   -2.9060301108    4.7990634316
C        3.2614317814    2.6150108401    0.1870972119
N       -0.5035435276   -1.6478841905    3.0554510092
N        1.0943892552   -2.6548388647    4.3087343055
O        2.7714241931    2.2049230968    2.8511756387
O        2.3353237666    1.6271883076    0.6609239646
H       -0.4944283795    1.1703748802    1.2109107901
H        2.6231140642   -0.5394606667    3.5878620474
H       -1.9368439596   -0.7040792991    1.8656116066
H        1.7171519848    3.9163646080   -0.5832359587
H        2.2488456414    4.3135682544    1.0714090300
H        3.2841734299    4.7140633618   -0.3149112263
H        3.1607947443   -2.9516203942    3.9628948811
H        2.4889539395   -3.8651972127    5.3254731648
H        2.7626641031   -2.1203968961    5.4969057558
H        4.1366833259    2.6840692562    0.8427445213
H        3.6184709539    2.3166163410   -0.8035976886
H        0.3413652237   -3.3241019851    4.4226876366
25   

C       -0.0554134188    0.3215691329    1.7613408507
C        1.6311893514   -0.5846201496    3.1663688020
C       -0.8890188052   -0.7197594942    2.1693978818
C        1.2362900203    0.4113282767    2.2778993148
C        0.7371651187   -1.5994208240    3.5170907898
C        2.2366573867    1.4520709803    1.8829800443
C        2.5848938766    4.0588589134    0.2269725061
C        2.4034684461   -2.8610469347    4.9131233158
C        3.1463934892    2.6503707167    0.0571416616
N       -0.4988868538   -1.6652718474    3.0360518292
N        1.0574943083   -2.6221775756    4.3778976348
O        3.0168975110    1.9369441285    2.6971432009
O        2.2153311514    1.6766181279    0.5502564483
H       -0.4149826608    1.0511111313    1.0464536163
H        2.6280926639   -0.5665122067    3.5840414465
H       -1.8931971660   -0.7705756828    1.7647242070
H        1.6291452642    4.1484060501   -0.2980376986
H        2.4336631511    4.2852347163    1.2868673459
H        3.2843495227    4.7903986382   -0.1879444811
H        3.1279687879   -2.9580100826    4.0976231695
H        2.4141317774   -3.7912676945    5.4900290358
H        2.7038216304   -2.0427178572    5.5756697372
H        4.1116910735    2.5700448779    0.5694526959
H        3.3244829097    2.4607061823   -1.0060104765
H        0.2945708950   -3.2769901829    4.5084203362
25   

C       -0.0131327121    0.2326634405    1.6523120435
C        1.6473094957   -0.6079978665    3.1289485267
C       -0.8614874808   -0.7766174844    2.1073989045
C        1.2752272714    0.3374285869    2.1769973632
C        0.7388004920   -1.5931723168    3.5240681588
C        2.2928626729    1.3492863493    1.7544323251
C        2.6183561502    4.1246357329    0.3855720047
C        2.3739513989   -2.7885808156    5.0121140944
C        3.0333384455    2.7164441902   -0.0299081585
N       -0.4912667282   -1.6754539651    3.0304738877
N        1.0371827650   -2.5675278867    4.4467659586
O        3.2076253083    1.6910241914    2.4992489756
O        2.1031844690    1.7486963904    0.4769495955
H       -0.3610632540    0.9256434007    0.8963125187
H        2.6375901812   -0.5785955912    3.5617671527
H       -1.8615387084   -0.8402600416    1.6944012187
H        1.6097259541    4.3421674431    0.0216687832
H        2.6344250833    4.2223909173    1.4753686193
H        3.3113947292    4.8567755843   -0.0389497798
H        3.1081068476   -2.9356608512    4.2128964433
H        2.3686465334   -3.6862541331    5.6385204448
H        2.6732710598   -1.9381192905    5.6333866002
H        4.0505192473    2.5092627865    0.3210333329
H        3.0463503712    2.6538567770   -1.1225592141
H        0.2666840185   -3.2077187453    4.6026591895
25   

C        0.0079498168    0.1322046460    1.5457535852
C        1.6517749399   -0.6378501857    3.0786437968
C       -0.8513052433   -0.8437445025    2.0501066484
C        1.2967201392    0.2531015914    2.0689075051
C        0.7322685067   -1.5920600885    3.5215158785
C        2.3240808932    1.2414399867    1.6137058883
C        2.6697279303    4.1512835604    0.5571096950
C        2.3446276216   -2.7108659006    5.0920685259
C        2.9106865064    2.7865933399   -0.0810913142
N       -0.4945380136   -1.6929837119    3.0237365593
N        1.0148357536   -2.5135136188    4.5018487035
O        3.3513451277    1.4436901644    2.2565442858
O        1.9878642539    1.8184027493    0.4385311760
H       -0.3350653953    0.7865095972    0.7538592353
H        2.6373281333   -0.5952203056    3.5210118347
H       -1.8497049202   -0.9213358645    1.6354958957
H        1.6402480607    4.4745281381    0.3761512524
H        2.8459028556    4.1055784972    1.6361427619
H        3.3517693186    4.8892378556    0.1249136460
H        3.0850372892   -2.9097304907    4.3100056928
H        2.3265289709   -3.5701853513    5.7699051528
H        2.6448396053   -1.8276945483    5.6654402590
H        3.9476341110    2.4748136385    0.0871467168
H        2.7657419512    2.8659671922   -1.1630583133
H        0.2382432773   -3.1383627352    4.6869144168
25   

C        0.0014647434    0.0232529871    1.4471723158
C        1.6331767285   -0.6590573192    3.0337092134
C       -0.8620722417   -0.9224977894    1.9993762942
C        1.2886617472    0.1698137672    1.9688291751
C        0.7095276989   -1.5862155869    3.5229892744
C        2.3164778368    1.1413422201    1.4788156812
C        2.7401600714    4.1390549845    0.7286298883
C        2.3081456580   -2.6137529635    5.1680696982
C        2.7782792715    2.8526384196   -0.0906054374
N       -0.5130962454   -1.7157039997    3.0217505151
N        0.9826265521   -2.4480322747    4.5587151807
O        3.4312454093    1.2111947275    1.9909388909
O        1.8634430729    1.8860432065    0.4460764992
H       -0.3383535849    0.6338910043    0.6198220145
H        2.6136319850   -0.5916102340    3.4841739247
H       -1.8578819145   -1.0221889678    1.5832611508
H        1.7247786851    4.5463129623    0.7420795395
H        3.0625321628    3.9477227255    1.7566642635
H        3.4115372326    4.8809485490    0.2865761692
H        3.0537018742   -2.8562318743    4.4033847082
H        2.2842893991   -3.4341823520    5.8923201707
H        2.6055666415   -1.7004757148    5.6937473586
H        3.8002506297    2.4580222461   -0.1163859239
H        2.4892494830    3.0759387849   -1.1223792044
H        0.2046077508   -3.0621323527    4.7716545726
