28   
Generated by ForceBalance from scan.xyz: Frame 1 of 24
C       -0.5006568945    0.8451812528    0.1619002638
C       -2.3505800506   -2.3873720182    0.3921729318
C       -1.2920007323   -3.2855780394    0.2051684106
C        7.1264951239   -2.5135275081   -0.4061892377
C        7.9495536613   -1.3881632742   -0.2925465508
C       -2.0895567748   -1.0215200422    0.3730466441
C        0.0156490233   -2.8468755476   -0.0022270732
C        5.7411608353   -2.3716321034   -0.3570038019
C        7.3332661471   -0.1464028232   -0.1314670299
C       -0.7784289769   -0.5593601871    0.1720294789
C        0.2951876943   -1.4700622575   -0.0173463691
C        5.2329117696   -1.0715925745   -0.1954003482
C        2.7857843490   -1.6203016880   -0.2294775531
N       -0.1926853898    1.9709667645    0.1430806765
N        6.0056566287    0.0183116727   -0.0836388961
N        1.5712241779   -0.9333573337   -0.2228606287
N        3.8631202667   -0.7594941401   -0.1294815790
O        2.8806775117   -2.8399954264   -0.3106171674
H       -3.3620856351   -2.7492903504    0.5481884881
H       -1.4858728809   -4.3548482624    0.2153044521
H        7.5588879208   -3.5029113561   -0.5312452142
H        9.0317707975   -1.4668033897   -0.3257611284
H       -2.8858865025   -0.2973933094    0.5144628419
H        0.8215571352   -3.5506281828   -0.1541101539
H        5.0696297294   -3.2150459526   -0.4353399106
H        7.9266042390    0.7613821854   -0.0364958242
H        1.6144464504    0.0799301326   -0.2043084557
H        3.7111850302    0.2358474260   -0.0034855566
28   
Generated by ForceBalance from scan.xyz: Frame 2 of 24
C       -0.4521982674    0.8551644997    0.0730464553
C       -2.2963775247   -2.3513125480    0.5693521972
C       -1.2691317979   -3.2663627335    0.3040380103
C        7.1240564699   -2.5116665301   -0.4118321537
C        7.9309521054   -1.3962685407   -0.1638397504
C       -2.0288990145   -0.9892878923    0.4843489505
C        0.0127888799   -2.8448659027   -0.0483614437
C        5.7369114116   -2.3788097385   -0.4229219626
C        7.2975902826   -0.1740535650    0.0661677788
C       -0.7403792402   -0.5456979218    0.1420776373
C        0.3010157799   -1.4723932875   -0.1266987271
C        5.2113491351   -1.0978662390   -0.1848494003
C        2.7749663095   -1.6497888169   -0.4046409135
N       -0.1378049035    1.9770564434    0.0017453475
N        5.9680394467   -0.0181941001    0.0567217471
N        1.5580059609   -0.9625088056   -0.4814615280
N        3.8364777235   -0.7977947648   -0.1687334523
O        2.8752436047   -2.8655533102   -0.5228405552
H       -3.2901558332   -2.6980376371    0.8351764684
H       -1.4694295788   -4.3328844270    0.3628929969
H        7.5700978529   -3.4860428549   -0.5937318896
H        9.0140160466   -1.4680808018   -0.1465080606
H       -2.8019441499   -0.2536969578    0.6839105932
H        0.7937015543   -3.5599974256   -0.2668259291
H        5.0766933375   -3.2162096235   -0.6005567542
H        7.8781367271    0.7247140770    0.2668764338
H        1.6121884839    0.0508160418   -0.4733608759
H        3.6674467890    0.1839052003    0.0243112698
28   
Generated by ForceBalance from scan.xyz: Frame 3 of 24
C       -0.4040051549    0.8553493677   -0.0109385013
C       -2.2083967578   -2.3232992035    0.7488712399
C       -1.2206691544   -3.2537910384    0.3984495955
C        7.1042564552   -2.4779689939   -0.4171712851
C        7.8734186591   -1.3713766314   -0.0426527986
C       -1.9437723955   -0.9661566290    0.6021977162
C        0.0170058596   -2.8504921972   -0.1014074691
C        5.7175791629   -2.3647113149   -0.4984105222
C        7.2050746699   -0.1787499686    0.2385478533
C       -0.6957252635   -0.5408771141    0.1148459508
C        0.3031131359   -1.4829078228   -0.2414917814
C        5.1553661297   -1.1124549927   -0.2008315934
C        2.7493680336   -1.6801418011   -0.6192080209
N       -0.0895477923    1.9729303128   -0.1319674409
N        5.8755035347   -0.0423148397    0.1619292098
N        1.5222824969   -1.0044406535   -0.7497883142
N        3.7746220599   -0.8367647455   -0.2437787044
O        2.8707170458   -2.8860785408   -0.7958160450
H       -3.1703360366   -2.6551399618    1.1270976695
H       -1.4204836908   -4.3168079292    0.5037242584
H        7.5785846719   -3.4296776197   -0.6423019878
H        8.9549021232   -1.4280163085    0.0326358590
H       -2.6867837303   -0.2198292647    0.8657758532
H        0.7654420313   -3.5765449333   -0.3902028059
H        5.0843195295   -3.1972995257   -0.7716488172
H        7.7559984527    0.7110775244    0.5381094707
H        1.5878725520    0.0089197969   -0.7590232413
H        3.5714663952    0.1239984903    0.0116647386
28   
Generated by ForceBalance from scan.xyz: Frame 4 of 24
C       -0.3503151264    0.8576667449   -0.0878831338
C       -2.0592778543   -2.2949371208    0.9532763815
C       -1.1162916265   -3.2379868710    0.5204720913
C        7.0695063912   -2.4406637828   -0.4022556746
C        7.7845618290   -1.3593454643    0.1226935187
C       -1.8147758284   -0.9432419261    0.7392782346
C        0.0548449097   -2.8503234956   -0.1285541857
C        5.6899366075   -2.3437414433   -0.5758350018
C        7.0712191043   -0.2067465117    0.4560923487
C       -0.6293718971   -0.5337641179    0.1028108889
C        0.3212540855   -1.4879824503   -0.3386314591
C        5.0811268617   -1.1315622142   -0.2130051833
C        2.7244740923   -1.6995147964   -0.8523652380
N       -0.0485275206    1.9710906977   -0.2659367107
N        5.7479536052   -0.0857146405    0.2931402927
N        1.4793946590   -1.0411249706   -1.0020174991
N        3.6997979191   -0.8767136085   -0.3337124573
O        2.8792168879   -2.8842498268   -1.1158556958
H       -2.9719226286   -2.6138716912    1.4470871437
H       -1.3021571260   -4.2970770303    0.6778215387
H        7.5803798837   -3.3609087560   -0.6733538560
H        8.8587874136   -1.4051926504    0.2725159948
H       -2.5239207825   -0.1884674257    1.0648853724
H        0.7662285101   -3.5859372059   -0.4830765232
H        5.0969434648   -3.1593034847   -0.9661147235
H        7.5789971442    0.6618937132    0.8715334048
H        1.5465531312   -0.0273936412   -1.0318928851
H        3.4536259693    0.0546554802   -0.0147699280
28   
Generated by ForceBalance from scan.xyz: Frame 5 of 24
C       -0.2868245652    0.8527799170   -0.1974333669
C       -1.8588531662   -2.2616435953    1.1345249968
C       -0.9585183982   -3.2189241374    0.6440905320
C        7.0296930716   -2.4600743074   -0.4036466375
C        7.6830451060   -1.4245882099    0.2720114774
C       -1.6481729326   -0.9191311932    0.8427741589
C        0.1344327072   -2.8520038548   -0.1383425632
C        5.6640823687   -2.3639737692   -0.6666248572
C        6.9255417933   -0.3181605168    0.6606505494
C       -0.5381055654   -0.5311340447    0.0701956201
C        0.3666921861   -1.4985906341   -0.4320512872
C        5.0074250260   -1.2007630027   -0.2349250758
C        2.7135846456   -1.7321583762   -1.0963964552
N       -0.0091488618    1.9604612463   -0.4391335699
N        5.6151037829   -0.1994244324    0.4145811383
N        1.4460106813   -1.0897264013   -1.2395805857
N        3.6319609467   -0.9550126006   -0.4305444927
O        2.9109909028   -2.8755426797   -1.4784739334
H       -2.7125609527   -2.5634635179    1.7332882061
H       -1.1187814254   -4.2713792162    0.8622956043
H        7.5768917712   -3.3430420524   -0.7233806991
H        8.7446776698   -1.4703501139    0.4941202091
H       -2.3249209617   -0.1543348266    1.2112366802
H        0.8089732691   -3.6004957224   -0.5377857520
H        5.1168576707   -3.1450832921   -1.1761729095
H        7.3855390925    0.5132549055    1.1917392913
H        1.5176605856   -0.0766048320   -1.2987066485
H        3.3420538779   -0.0619697436   -0.0451989179
28   
Generated by ForceBalance from scan.xyz: Frame 6 of 24
C       -1.2039492621    0.3641229577   -1.3145537163
C       -1.5080108631   -2.2692231827    1.3158108557
C       -0.1618401387   -2.6289308463    1.4620661179
C        6.8553514756   -2.5503162529   -0.7850552783
C        7.4879030755   -2.1609124514    0.3997554508
C       -1.8466048406   -1.2798042873    0.3986523232
C        0.8376227372   -2.0114309347    0.7116726104
C        5.5675590392   -2.0956082948   -1.0646993508
C        6.7895649159   -1.3192383457    1.2677981026
C       -0.8496381826   -0.6471984838   -0.3643542610
C        0.5129967253   -1.0070012669   -0.2152377758
C        4.9613961416   -1.2579203101   -0.1149203054
C        2.7448785912   -0.9707753758   -1.2416242091
N       -1.4446115849    1.1860230472   -2.1068246723
N        5.5505305837   -0.8740456991    1.0254521554
N        1.4925760930   -0.3190288857   -0.9570793755
N        3.6648489903   -0.7262598506   -0.2585899347
O        2.9465393044   -1.5865732478   -2.2761000283
H       -2.2777441072   -2.7578357493    1.9048481991
H        0.1165950501   -3.4059313892    2.1688542393
H        7.3606430398   -3.2015662746   -1.4933795159
H        8.4913393881   -2.4944462321    0.6454378748
H       -2.8811191099   -0.9827355222    0.2564179436
H        1.8707113930   -2.3161351365    0.8416664803
H        5.0441317643   -2.3626164831   -1.9728265570
H        7.2392935037   -0.9853786607    2.2011875096
H        1.1141671766    0.0461047260   -1.8299161591
H        3.3854653523   -0.1135748306    0.5006244453
28   
Generated by ForceBalance from scan.xyz: Frame 7 of 24
C       -1.2146283026    0.3229548128   -1.3185882941
C       -1.4183323112   -2.1859021262    1.4389279223
C       -0.0774194841   -2.5824305710    1.5131132989
C        6.8973021357   -2.4465475802   -0.7895347458
C        7.4266553464   -2.1725401212    0.4757415585
C       -1.7882234305   -1.2278172879    0.5003133210
C        0.8880599730   -2.0323050676    0.6701609608
C        5.6161600255   -2.0050680046   -1.1157775839
C        6.6336516972   -1.4564569528    1.3742117449
C       -0.8257814546   -0.6593493878   -0.3512576594
C        0.5333631975   -1.0569617353   -0.2767140935
C        4.9082418730   -1.2999458170   -0.1289157988
C        2.7600129476   -0.9816517148   -1.3743133363
N       -1.4897530713    1.1177570869   -2.1269193698
N        5.3978011002   -1.0279299262    1.0884206412
N        1.4652404866   -0.4349657877   -1.1288158120
N        3.6060454768   -0.7975683882   -0.3106606711
O        3.0674500258   -1.4597576943   -2.4561979007
H       -2.1612240044   -2.6228796914    2.0987045941
H        0.2247721218   -3.3383053679    2.2328998225
H        7.4788226575   -2.9967675787   -1.5246007579
H        8.4225966552   -2.4985352886    0.7591155827
H       -2.8207248268   -0.9041784345    0.4117068234
H        1.9142603582   -2.3742490371    0.7419575371
H        5.1720054707   -2.1829662310   -2.0857960462
H        7.0008335943   -1.2141685272    2.3699361970
H        1.0556282781   -0.1515816139   -2.0167965566
H        3.2598188143   -0.2733503535    0.4863456200
28   
Generated by ForceBalance from scan.xyz: Frame 8 of 24
C       -1.1876492505    0.3207874467   -1.3156369734
C       -1.3740488853   -2.0838786580    1.5346296833
C       -0.0560116921   -2.5551660702    1.5490282773
C        6.9513903117   -2.3262902601   -0.7880596702
C        7.4031250095   -2.1413368766    0.5229087291
C       -1.7430411234   -1.1385278504    0.5823633314
C        0.8888959350   -2.0915101365    0.6332375880
C        5.6647162063   -1.9250462449   -1.1422673643
C        6.5280559138   -1.5527621396    1.4372812029
C       -0.7999546325   -0.6523780206   -0.3383051527
C        0.5373933831   -1.1252212926   -0.3242954562
C        4.8702612945   -1.3511010877   -0.1359887310
C        2.7711094717   -1.0295566322   -1.4625814675
N       -1.4682010150    1.1044282772   -2.1327609812
N        5.2846271001   -1.1661237695    1.1252179852
N        1.4398888707   -0.5945973533   -1.2615707106
N        3.5519285294   -0.9048631525   -0.3388020129
O        3.1680247291   -1.3764043104   -2.5668220826
H       -2.1014825299   -2.4548047681    2.2497559780
H        0.2435211011   -3.3054049363    2.2757347163
H        7.5983319489   -2.7755294861   -1.5370196107
H        8.4013967768   -2.4386340186    0.8287523549
H       -2.7594730283   -0.7597066628    0.5384332265
H        1.8926213053   -2.4994113464    0.6537476736
H        5.2791747301   -2.0354756368   -2.1467108172
H        6.8322632397   -1.3827499787    2.4686106097
H        1.0197491249   -0.3522480671   -2.1555767333
H        3.1476251145   -0.4704502701    0.4843517022
28   
Generated by ForceBalance from scan.xyz: Frame 9 of 24
C       -1.1407481395    0.3432644197   -1.3022591777
C       -1.3510742002   -1.9851914074    1.6076668939
C       -0.0684017789   -2.5447492156    1.5731783651
C        7.0049360390   -2.1677242559   -0.7922827778
C        7.4049156704   -2.0497160122    0.5431464420
C       -1.7024457226   -1.0385374326    0.6498868299
C        0.8602182565   -2.1674684623    0.6027636551
C        5.7039780652   -1.8299828407   -1.1596683816
C        6.4651837648   -1.5909174418    1.4673668627
C       -0.7724354917   -0.6350480401   -0.3223515192
C        0.5302557009   -1.1957228881   -0.3574154699
C        4.8422457751   -1.3865805587   -0.1424452143
C        2.7732162259   -1.0805882395   -1.5191301102
N       -1.4100993754    1.1282286160   -2.1217288525
N        5.2072350696   -1.2672282371    1.1420349181
N        1.4136499573   -0.7604480134   -1.3555275528
N        3.5010194107   -1.0216109866   -0.3531718037
O        3.2375425793   -1.2974484508   -2.6315542783
H       -2.0667917972   -2.2907862300    2.3643311912
H        0.2133458145   -3.2998732745    2.3018692125
H        7.7028086869   -2.5156787978   -1.5494325526
H        8.4123934400   -2.3004667241    0.8602728305
H       -2.6928311704   -0.5939683735    0.6430980923
H        1.8309141393   -2.6485944974    0.5793595640
H        5.3560798383   -1.8915155158   -2.1817740428
H        6.7271233529   -1.4770746253    2.5179023149
H        0.9924591019   -0.5114662343   -2.2459855654
H        3.0504088913   -0.6781867714    0.4885494623
28   
Generated by ForceBalance from scan.xyz: Frame 10 of 24
C       -1.0920801171    0.3554017186   -1.3006230471
C       -1.3473587479   -1.8915239139    1.6698664485
C       -0.1068629030   -2.5369871363    1.6032077681
C        7.0321380546   -2.0265337097   -0.8094272712
C        7.4031793666   -1.9692179668    0.5383486481
C       -1.6715948305   -0.9455707018    0.7017996916
C        0.8062238294   -2.2447274629    0.5898827567
C        5.7171209962   -1.7544223925   -1.1809453293
C        6.4195404546   -1.6357517461    1.4704026506
C       -0.7534867481   -0.6247327081   -0.3117210412
C        0.5077700758   -1.2705325506   -0.3785256475
C        4.8110017997   -1.4368226498   -0.1551324339
C        2.7565348788   -1.1438898845   -1.5551197713
N       -1.3390925534    1.1398039396   -2.1275681567
N        5.1476272706   -1.3766540660    1.1413928570
N        1.3772279903   -0.9340378130   -1.4222890628
N        3.4500317039   -1.1547089982   -0.3659961279
O        3.2629540451   -1.2397337930   -2.6669648822
H       -2.0531738928   -2.1319839430    2.4586731684
H        0.1503768737   -3.2947391516    2.3381517625
H        7.7637463078   -2.2769032502   -1.5732812688
H        8.4204018036   -2.1718530113    0.8588143975
H       -2.6306413051   -0.4372215952    0.7194885388
H        1.7378403507   -2.7959906334    0.5353620472
H        5.3904072487   -1.7728551567   -2.2116135507
H        6.6564263270   -1.5730282799    2.5311609928
H        0.9602613485   -0.6363288442   -2.2988359276
H        2.9692164228   -0.8976762885    0.4895022984
28   
Generated by ForceBalance from scan.xyz: Frame 11 of 24
C       -0.9893119170    0.3840541607   -1.3023318126
C       -1.3232505128   -1.7918768526    1.7142654730
C       -0.1453017911   -2.5422825364    1.6159407245
C        7.0618517030   -1.8789459534   -0.8112110316
C        7.4056791881   -1.8851795791    0.5449545922
C       -1.6041289382   -0.8364954791    0.7417643928
C        0.7484604874   -2.3437927788    0.5635875123
C        5.7358810617   -1.6838990213   -1.1921769048
C        6.3839874227   -1.6917843777    1.4755840607
C       -0.7003225575   -0.6081083058   -0.3093160905
C        0.4982989347   -1.3589704259   -0.4076439876
C        4.7913624061   -1.5051960119   -0.1674206912
C        2.7492528159   -1.2380472901   -1.5884257007
N       -1.1994041344    1.1764601362   -2.1317438236
N        5.1015465004   -1.5076445615    1.1372117607
N        1.3561798110   -1.1298574916   -1.4893916645
N        3.4156337595   -1.3143679011   -0.3861252960
O        3.2856733388   -1.2255185748   -2.6905471419
H       -2.0172187023   -1.9600719308    2.5318264699
H        0.0732541838   -3.3089781246    2.3540704439
H        7.8228927915   -2.0206699153   -1.5742026454
H        8.4301680139   -2.0311927058    0.8730253823
H       -2.5162646443   -0.2495158086    0.7855842437
H        1.6253458879   -2.9758036710    0.4773826158
H        5.4281464378   -1.6586992898   -2.2284382413
H        6.5978531695   -1.6838332816    2.5430718410
H        0.9500693836   -0.7687137105   -2.3467561806
H        2.9079558558   -1.1481284071    0.4760796709
28   
Generated by ForceBalance from scan.xyz: Frame 12 of 24
C       -0.6947983730    0.2524918736    1.8014460026
C       -1.4982581680   -1.5618856221   -1.3605486911
C       -0.3851634586   -2.4053963530   -1.4597950913
C        7.1274082506   -1.7592253828    0.1027152983
C        7.2789676814   -1.7177349691   -1.2874579277
C       -1.6030746801   -0.6969718458   -0.2749095100
C        0.6175627831   -2.3872867360   -0.4901630711
C        5.8556155337   -1.6821156631    0.6666943487
C        6.1251782182   -1.5984208276   -2.0632174447
C       -0.5854832955   -0.6496359259    0.6928852288
C        0.5492257967   -1.4925488456    0.5909755918
C        4.7660406252   -1.5679233411   -0.2129406608
C        2.9295178182   -1.4571378660    1.4807585704
N       -0.7593750329    0.9682596895    2.7197366140
N        4.8915529004   -1.5264358643   -1.5474514568
N        1.5302839178   -1.4572503373    1.5922135021
N        3.4222950502   -1.4977206724    0.1965435293
O        3.6157678606   -1.4210094335    2.4957111080
H       -2.2795070074   -1.5898641679   -2.1137066298
H       -0.3055750049   -3.1043394307   -2.2877293755
H        7.9959017346   -1.8476995544    0.7502786126
H        8.2562825102   -1.7728246232   -1.7568967712
H       -2.4624901221   -0.0427505218   -0.1658458181
H        1.4389163386   -3.0934175985   -0.5506574004
H        5.6939043660   -1.6992098264    1.7356100072
H        6.1870770255   -1.5584013937   -3.1494643750
H        1.2483991723   -1.1174926572    2.5068209939
H        2.7911657034   -1.3615074381   -0.5853642201
28   
Generated by ForceBalance from scan.xyz: Frame 13 of 24
C       -0.7960061889    0.2386975839    1.8100067424
C       -1.5208705151   -1.6653175901   -1.3192955127
C       -0.3425768653   -2.4121608120   -1.4386957248
C        7.1176376535   -1.9254116046    0.0980615835
C        7.2861251866   -1.8072969645   -1.2858246123
C       -1.6711398018   -0.8017308574   -0.2381432498
C        0.6794286281   -2.3003161151   -0.4960569652
C        5.8523102571   -1.7719239639    0.6608461385
C        6.1558291925   -1.5353529254   -2.0576931861
C       -0.6392847370   -0.6600376407    0.7047669511
C        0.5596902772   -1.4070251586    0.5826052341
C        4.7865539123   -1.5056260635   -0.2151726711
C        2.9437243633   -1.3754884002    1.4725386736
N       -0.8956150065    0.9534022991    2.7261223781
N        4.9281727320   -1.3885681105   -1.5435129353
N        1.5497485983   -1.2678550050    1.5616905886
N        3.4510932488   -1.3424023174    0.1931761221
O        3.6163335350   -1.4557824797    2.4941212751
H       -2.3143633831   -1.7661999145   -2.0531085553
H       -0.2230312300   -3.1091487924   -2.2635202633
H        7.9685643609   -2.1320592343    0.7419866789
H        8.2595720279   -1.9181919899   -1.7534007898
H       -2.5791806675   -0.2201855596   -0.1127143200
H        1.5576080409   -2.9309490356   -0.5790351097
H        5.6791193829   -1.8417272046    1.7258948626
H        6.2322585388   -1.4299068250   -3.1386038426
H        1.2586365670   -0.9815011480    2.4910498577
H        2.8385826349   -1.1039764500   -0.5793249347
28   
Generated by ForceBalance from scan.xyz: Frame 14 of 24
C       -0.8931794271    0.2099628442    1.8133471669
C       -1.5398413677   -1.7669896636   -1.2879553012
C       -0.3046925547   -2.4085025691   -1.4389393102
C        7.0851113711   -2.0740428821    0.0764589802
C        7.2818342332   -1.8957205150   -1.2972060666
C       -1.7331211767   -0.9122818807   -0.2065952517
C        0.7320011671   -2.2009976833   -0.5289074002
C        5.8301639086   -1.8425311038    0.6358067635
C        6.1892494241   -1.4857694744   -2.0624733531
C       -0.6913714015   -0.6763363346    0.7056125389
C        0.5643150301   -1.3179687389    0.5519253932
C        4.8025950346   -1.4397035053   -0.2337147369
C        2.9456689141   -1.2818964574    1.4375366578
N       -1.0262948910    0.9162163540    2.7318459195
N        4.9713988410   -1.2631678514   -1.5521287994
N        1.5618848706   -1.0693392012    1.5012807636
N        3.4814542183   -1.1841757274    0.1732313404
O        3.5892948816   -1.4724543122    2.4628519098
H       -2.3421486258   -1.9411160328   -1.9980055501
H       -0.1478115982   -3.0966758365   -2.2649722880
H        7.9065943051   -2.3875421063    0.7154264280
H        8.2485148480   -2.0641045518   -1.7616288254
H       -2.6840180185   -0.4105507939   -0.0564298054
H        1.6600426214   -2.7492397929   -0.6427333464
H        5.6377334605   -1.9537929917    1.6940787040
H        6.2890871002   -1.3280536143   -3.1350431428
H        1.2622089880   -0.8513930870    2.4465624077
H        2.8968718889   -0.8555569797   -0.5879527423
28   
Generated by ForceBalance from scan.xyz: Frame 15 of 24
C       -0.9475728218    0.1925141216    1.8267739590
C       -1.5391823518   -1.8649537092   -1.2320695585
C       -0.2651461150   -2.4163539471   -1.4120309296
C        7.0513972610   -2.2201348721    0.0620599629
C        7.2803294126   -1.9858625572   -1.2980751922
C       -1.7604019232   -1.0112382548   -0.1554156283
C        0.7813125682   -2.1216284359   -0.5377323951
C        5.8106304827   -1.9206942933    0.6210264318
C        6.2332297532   -1.4521849809   -2.0507159397
C       -0.7124591685   -0.6905613903    0.7232033825
C        0.5814783675   -1.2430321850    0.5408974927
C        4.8295580051   -1.3942537893   -0.2358312226
C        2.9543216671   -1.2203827056    1.4139190226
N       -1.1044667272    0.8983999381    2.7418709925
N        5.0291944628   -1.1627031111   -1.5411630137
N        1.5870660810   -0.8941509325    1.4533030102
N        3.5288472681   -1.0537805031    0.1749982836
O        3.5548280278   -1.5323450992    2.4347407734
H       -2.3471131951   -2.1058172357   -1.9157524892
H       -0.0820219217   -3.1005672666   -2.2359910788
H        7.8373535267   -2.6296746786    0.6912457643
H        8.2373983580   -2.2044112665   -1.7614994310
H       -2.7397039228   -0.5759681692    0.0178695188
H        1.7447689287   -2.5961774994   -0.6820649667
H        5.5955416173   -2.0720447627    1.6700118822
H        6.3597922014   -1.2465384748   -3.1122516059
H        1.2824032502   -0.7227418449    2.4072477211
H        2.9775223161   -0.6389412164   -0.5689220927
28   
Generated by ForceBalance from scan.xyz: Frame 16 of 24
C       -0.9882471176    0.1894295595    1.8297013556
C       -1.5582006980   -1.9647926130   -1.1659387427
C       -0.2566265558   -2.4290988523   -1.3898023629
C        6.9981809094   -2.3634940597    0.0316267397
C        7.2808173032   -2.0562652284   -1.3035048445
C       -1.7943659848   -1.1049331385   -0.0976012048
C        0.8015913399   -2.0421086906   -0.5672212649
C        5.7686398009   -2.0054753862    0.5812498319
C        6.2991063471   -1.3927985684   -2.0412877201
C       -0.7368903498   -0.6959939002    0.7318620200
C        0.5838428574   -1.1618324404    0.5061646745
C        4.8551955618   -1.3473289976   -0.2587773428
C        2.9463989032   -1.1565322088    1.3504375950
N       -1.1535823063    0.9000768418    2.7397418330
N        5.1071695193   -1.0449361986   -1.5400428042
N        1.6036039470   -0.7110524573    1.3610038256
N        3.5751625219   -0.9314010721    0.1496066883
O        3.4807643143   -1.5960540994    2.3595784938
H       -2.3743816489   -2.2758969249   -1.8103019596
H       -0.0589622454   -3.1138545412   -2.2100042176
H        7.7328047676   -2.8748052451    0.6482157842
H        8.2307679078   -2.3172085191   -1.7595552665
H       -2.7936839562   -0.7342478992    0.1086516218
H        1.7913847815   -2.4429865841   -0.7513363263
H        5.5134635447   -2.2100229134    1.6121527168
H        6.4705708078   -1.1269962210   -3.0829358351
H        1.3023272775   -0.5429558113    2.3177099196
H        3.0710034441   -0.4269342038   -0.5722773342
28   
Generated by ForceBalance from scan.xyz: Frame 17 of 24
C       -1.0163887875    0.1751349329    1.8417535364
C       -1.5839750893   -2.0801620521   -1.0785818649
C       -0.2655310542   -2.4596901937   -1.3586461410
C        6.9479004053   -2.4864761227    0.0380406454
C        7.3123170510   -2.0995060909   -1.2556646084
C       -1.8256504633   -1.2115812538   -0.0189138761
C        0.8030686116   -1.9805644424   -0.6010631184
C        5.7211174362   -2.0827809597    0.5621667409
C        6.4147969702   -1.3124491635   -1.9794970183
C       -0.7590171875   -0.7148857202    0.7493095519
C        0.5774791282   -1.0954556949    0.4663246315
C        4.8965183905   -1.2984192948   -0.2606733046
C        2.9266877055   -1.1039944314    1.2718387023
N       -1.1827878760    0.8930477202    2.7460322606
N        5.2277887700   -0.9179856097   -1.5020451280
N        1.6140400160   -0.5455514139    1.2435860481
N        3.6308343553   -0.8218481349    0.1292727816
O        3.3677255401   -1.6734363294    2.2591323806
H       -2.4074553278   -2.4616392478   -1.6739870175
H       -0.0618868215   -3.1466963665   -2.1755300030
H        7.6156966116   -3.0953129835    0.6418720579
H        8.2621894749   -2.3933670432   -1.6913892889
H       -2.8366170281   -0.9037204424    0.2297185668
H        1.8098497885   -2.3082371010   -0.8339268910
H        5.4034163932   -2.3475791143    1.5615741061
H        6.6530649682   -0.9819126149   -2.9889311871
H        1.3231292677   -0.3438897481    2.1982112965
H        3.1883222019   -0.2317861143   -0.5677872515
28   
Generated by ForceBalance from scan.xyz: Frame 18 of 24
C       -1.0050874506    0.2163491692    1.8424779215
C       -1.6586622527   -2.1743482766   -0.9513272744
C       -0.3445381963   -2.5093436336   -1.3031973451
C        6.9036195672   -2.5893498407    0.0317168479
C        7.3835899802   -2.0937938474   -1.1846671846
C       -1.8715458046   -1.2733363420    0.0867649722
C        0.7458272074   -1.9527863224   -0.6363821323
C        5.6638959132   -2.1687920081    0.5108726353
C        6.5854199918   -1.1833320076   -1.8800418842
C       -0.7815821997   -0.7033923503    0.7675982159
C        0.5485912076   -1.0377040794    0.4110848129
C        4.9470176299   -1.2544804743   -0.2774117711
C        2.8937368698   -1.0782624854    1.1429092666
N       -1.1368455226    0.9627310705    2.7294270144
N        5.3892966755   -0.7684802905   -1.4449157612
N        1.6191549350   -0.4108622146    1.0781190414
N        3.6818114627   -0.7451906075    0.0749334370
O        3.2222174387   -1.7799074086    2.0862067722
H       -2.5003730357   -2.6144866743   -1.4766680375
H       -0.1632764309   -3.2179655068   -2.1068337424
H        7.4909901248   -3.2972371422    0.6105539237
H        8.3461712301   -2.3985223120   -1.5835086357
H       -2.8776949801   -0.9983243569    0.3879868666
H        1.7521210176   -2.2362088510   -0.9262118090
H        5.2582437689   -2.5174434337    1.4510020111
H        6.9152868511   -0.7660535959   -2.8297765581
H        1.3574716908   -0.1260105695    2.0208767441
H        3.3121030153   -0.0694352086   -0.5857601397
28   
Generated by ForceBalance from scan.xyz: Frame 19 of 24
C       -0.2402371027    0.8113608522    0.6916462508
C       -1.9787572712   -2.1814840486   -0.7109234915
C       -1.0233705954   -3.1704249648   -0.4339378773
C        7.0344210882   -2.4683977165   -0.3399066223
C        7.6005305417   -1.3797929694   -1.0107619744
C       -1.7293527961   -0.8698647616   -0.3244829384
C        0.1636001020   -2.8673852892    0.2298603598
C        5.7147181463   -2.4002588381    0.1040295412
C        6.8040323240   -0.2506225082   -1.2096563831
C       -0.5272410007   -0.5439240941    0.3299454050
C        0.4337877709   -1.5446751456    0.6162683209
C        5.0131730524   -1.2102953484   -0.1461619842
C        2.8450461033   -1.8224084922    0.9543843141
N        0.0690217150    1.8944502415    0.9978335188
N        5.5369825095   -0.1579215248   -0.7879222111
N        1.6097778921   -1.2007657967    1.3107107324
N        3.6760673681   -0.9874748737    0.2449274313
O        3.0826681826   -2.9930325575    1.2104534718
H       -2.9039409422   -2.4352952980   -1.2189012640
H       -1.2126587746   -4.1995570171   -0.7271783220
H        7.6138004540   -3.3709591661   -0.1638916521
H        8.6243337075   -1.4022525219   -1.3710884205
H       -2.4471347973   -0.0812054915   -0.5281188683
H        0.8829109379   -3.6430528247    0.4660779557
H        5.2340635974   -3.2220926588    0.6166095343
H        7.1955347886    0.6224101027   -1.7287064170
H        1.6939780016   -0.1961033546    1.4472253489
H        3.3431868300   -0.0684116639   -0.0280994839
28   
Generated by ForceBalance from scan.xyz: Frame 20 of 24
C       -0.3108878415    0.8281890936    0.5661127555
C       -2.1566286155   -2.2310914660   -0.5189830031
C       -1.1709866891   -3.2026244169   -0.2941909260
C        7.0713932511   -2.4392855995   -0.3609060378
C        7.7182839021   -1.3115282103   -0.8764450405
C       -1.8790686219   -0.9019372482   -0.2208141795
C        0.0758155592   -2.8668125716    0.2309598732
C        5.7258809711   -2.3663270511   -0.0044766046
C        6.9735502389   -0.1388908594   -1.0136037289
C       -0.6196874552   -0.5428701587    0.2920156222
C        0.3743863562   -1.5264520360    0.5232588167
C        5.0810422834   -1.1312093378   -0.1788133216
C        2.8226063897   -1.7677128210    0.7048513125
N        0.0172828732    1.9235490603    0.8005931480
N        5.6826523115   -0.0409259671   -0.6727203412
N        1.6102763822   -1.1323735378    1.0694292777
N        3.7277494980   -0.8968554609    0.1395907489
O        3.0037815712   -2.9698836832    0.8422735363
H       -3.1266944390   -2.5109752874   -0.9179001635
H       -1.3813310435   -4.2449785016   -0.5182740435
H        7.6082946055   -3.3764157641   -0.2389456568
H        8.7642256057   -1.3370535815   -1.1660293167
H       -2.6197954891   -0.1256118452   -0.3858309677
H        0.8225152260   -3.6265916152    0.4259848603
H        5.1838832983   -3.2166522112    0.3857149404
H        7.4281151393    0.7659838821   -1.4130200197
H        1.6860675675   -0.1247678290    1.1790638405
H        3.4473324937    0.0572075051   -0.0626297913
28   
Generated by ForceBalance from scan.xyz: Frame 21 of 24
C       -0.3772713816    0.8329901948    0.5064881763
C       -2.2771484285   -2.2772004095   -0.3032394822
C       -1.2549878651   -3.2268875316   -0.1709275524
C        7.1071417081   -2.4847975733   -0.3441428058
C        7.8286382831   -1.3483618717   -0.7241245632
C       -1.9902512497   -0.9372861818   -0.0673715877
C        0.0389361928   -2.8618859178    0.1990130925
C        5.7429503584   -2.3850892862   -0.0770498064
C        7.1369320448   -0.1399271731   -0.8208073549
C       -0.6880107625   -0.5481337130    0.2913916590
C        0.3453593467   -1.5105428639    0.4264760635
C        5.1549922661   -1.1153819924   -0.1990553632
C        2.8190771178   -1.7267078742    0.4744770160
N       -0.0453936021    1.9373088106    0.6877650814
N        5.8288993026   -0.0162327691   -0.5639657204
N        1.6218579447   -1.0701651089    0.8132134638
N        3.7928585365   -0.8500477338    0.0425609653
O        2.9546760358   -2.9425837169    0.5330805906
H       -3.2812126942   -2.5810716550   -0.5825884698
H       -1.4705773108   -4.2773538521   -0.3470377956
H        7.6008959596   -3.4493161084   -0.2586084348
H        8.8912312290   -1.3940296510   -0.9415993607
H       -2.7583474212   -0.1760149067   -0.1623390626
H        0.8154193223   -3.6055625340    0.3206700646
H        5.1450652390   -3.2397742827    0.2074594718
H        7.6502097261    0.7735562780   -1.1160050877
H        1.6938813633   -0.0611575151    0.9024306475
H        3.5639724180    0.1272278142   -0.1061759889
28   
Generated by ForceBalance from scan.xyz: Frame 22 of 24
C       -0.4303001453    0.8396274767    0.4167358835
C       -2.3424018423   -2.3206878473   -0.1160487807
C       -1.2952494505   -3.2499904310   -0.0630459837
C        7.1251770340   -2.5169493147   -0.3645590154
C        7.9006070007   -1.3795531358   -0.6130191212
C       -2.0575717717   -0.9698836068    0.0514294902
C        0.0237517921   -2.8547974331    0.1588479867
C        5.7516537801   -2.3925641918   -0.1648168863
C        7.2507072271   -0.1450112147   -0.6504793018
C       -0.7332417167   -0.5514885840    0.2642895785
C        0.3281170455   -1.4928511433    0.3179305788
C        5.2077492180   -1.0983492770   -0.2186446438
C        2.8160294604   -1.6806957277    0.2603107813
N       -0.1027935583    1.9527556672    0.5442029015
N        5.9342152731    0.0024684096   -0.4575701548
N        1.6231259957   -1.0095788034    0.5532750538
N        3.8439045692   -0.8053817871   -0.0324010156
O        2.9233997119   -2.9015855542    0.2566132364
H       -3.3640081351   -2.6479604110   -0.2824878750
H       -1.5080747930   -4.3083872891   -0.1876940706
H        7.5846791717   -3.5013426214   -0.3286764756
H        8.9721465570   -1.4438085271   -0.7747379990
H       -2.8450007688   -0.2234254087    0.0157683951
H        0.8215557593   -3.5824341124    0.2137524236
H        5.1142575595   -3.2459012263    0.0201610510
H        7.8065046031    0.7710878419   -0.8427271151
H        1.6818668334    0.0007955965    0.6275054792
H        3.6575684673    0.1886705768   -0.1143069523
28   
Generated by ForceBalance from scan.xyz: Frame 23 of 24
C       -0.4818522934    0.8411026581    0.3191118447
C       -2.3706231587   -2.3677810072    0.0606193579
C       -1.3038399459   -3.2754966883    0.0437025429
C        7.1270840768   -2.5276597302   -0.3875913809
C        7.9375113284   -1.3926879863   -0.4963074458
C       -2.0988404921   -1.0072250823    0.1563428046
C        0.0223470706   -2.8507767463    0.1231954854
C        5.7486984642   -2.3861350458   -0.2402948624
C        7.3174364574   -0.1431642388   -0.4515248897
C       -0.7698005977   -0.5586892860    0.2310217604
C        0.3121027472   -1.4789775300    0.2136826198
C        5.2352208863   -1.0786066516   -0.2049972483
C        2.8082320638   -1.6371606958    0.0946920701
N       -0.1650309490    1.9623070527    0.3907207167
N        5.9965252192    0.0201281203   -0.3085783490
N        1.6077738988   -0.9574168316    0.3053038864
N        3.8713190176   -0.7669576313   -0.0606586440
O        2.9030185338   -2.8587602809    0.0506565796
H       -3.3963154811   -2.7184582812    0.0017875546
H       -1.5051357016   -4.3410507341   -0.0278519402
H        7.5631482613   -3.5228527933   -0.4185773189
H        9.0139933449   -1.4698288217   -0.6132722266
H       -2.9012236289   -0.2761956535    0.1720502861
H        0.8357781903   -3.5621776984    0.1174159624
H        5.0854350346   -3.2356286995   -0.1575014482
H        7.9016965603    0.7718007598   -0.5330434423
H        1.6536183545    0.0545272765    0.3587259397
H        3.7141356683    0.2355091496   -0.0642307264
28   
Generated by ForceBalance from scan.xyz: Frame 24 of 24
C       -0.5136502642    0.8421194135    0.2569174073
C       -2.3774326400   -2.3904646450    0.2229046403
C       -1.3064378504   -3.2867353177    0.1147322465
C        7.1269245246   -2.5247629782   -0.3812980217
C        7.9503985770   -1.3939957890   -0.3916656998
C       -2.1139662281   -1.0257243958    0.2698962882
C        0.0152995707   -2.8454635922    0.0531575654
C        5.7447074589   -2.3787157038   -0.2820866001
C        7.3380909766   -0.1431636197   -0.3004106184
C       -0.7895800221   -0.5619601607    0.2091144623
C        0.2979823045   -1.4697770364    0.0995531641
C        5.2405911015   -1.0697944363   -0.1959724468
C        2.7956358785   -1.6165675082   -0.0635395736
N       -0.2074066018    1.9680622654    0.2905262006
N        6.0137218207    0.0255292289   -0.2043664746
N        1.5872327029   -0.9301017309    0.0446246550
N        3.8749961151   -0.7522614441   -0.0899165176
O        2.8871937920   -2.8377602462   -0.1254712905
H       -3.3996486982   -2.7528932309    0.2695597687
H       -1.5003208894   -4.3554236418    0.0771174511
H        7.5563169090   -3.5209616312   -0.4500692084
H        9.0302619393   -1.4752400639   -0.4677247968
H       -2.9196784969   -0.3030019453    0.3535205737
H        0.8317841898   -3.5481374472   -0.0301186275
H        5.0724046965   -3.2250509858   -0.2709524726
H        7.9322129596    0.7690618719   -0.3041251182
H        1.6290048611    0.0822550242    0.0898565354
H        3.7275951371    0.2505559695   -0.0416370804
