28   

C       -3.3212225810    4.3776586639    2.2440569435
C       -3.7908023419    3.1657878761    2.7564632609
C       -2.3297568239    4.3765830407    1.2594838676
C       -3.2716614322    1.9556713309    2.2822761147
C       -1.8015021482    3.1654146257    0.7970550767
C       -2.2641114281    1.9396938590    1.3025335613
C       -0.5315446173    0.3972595081    0.1308222595
C        0.5573622323   -0.2158344692    0.8483089622
C       -0.5199770938    0.0341626088   -1.3278069225
C       -1.7052720252    0.6891145939    0.8350892389
C        1.9106408429   -0.2954135423   -1.1914109698
C        0.6750114319   -0.9307029261   -3.2781642801
N        1.6972597071   -0.6040512158    0.2010149079
N        0.6617587166   -0.3969456565   -1.9208884655
O        0.4881895924   -0.4598508712    2.0401576982
O       -1.5567447759    0.0838007994   -1.9731170873
H       -3.7248733368    5.3153278974    2.6092830362
H       -4.5554080319    3.1622710148    3.5250154238
H       -1.9689371788    5.3146456937    0.8533763419
H       -3.6447767752    1.0258022743    2.6963758378
H       -1.0342801493    3.1792120518    0.0314844742
H       -2.0813498824   -0.1577451610    1.3996232472
H        2.3197241349    0.7160699681   -1.2887623090
H        2.6372162214   -1.0023471942   -1.6058358434
H        1.5990521733   -0.6447417144   -3.7904544699
H       -0.1597469457   -0.5407033530   -3.8694087043
H        0.6062955177   -2.0228123926   -3.2509350380
H        2.3621146517   -1.1252180217    0.7595600498
28   

C       -3.4678354408    4.3768649976    2.0372542888
C       -3.8193493597    3.2242365039    2.7439505665
C       -2.5591141813    4.2914046826    0.9793277857
C       -3.2640600801    1.9888467349    2.3916036485
C       -1.9930324763    3.0573223247    0.6384457251
C       -2.3346324603    1.8905729616    1.3412385514
C       -0.5676688164    0.3065544586    0.3024639628
C        0.4445846231   -0.4936962030    0.9450897458
C       -0.5892822519    0.1153714712   -1.1833444538
C       -1.7301788891    0.6159589429    0.9992064579
C        1.7750207493   -0.5716479967   -1.1152669406
C        0.4925263253   -0.6966276971   -3.2626271246
N        1.5235988037   -0.9629393979    0.2497721299
N        0.5314901677   -0.3849813322   -1.8377246364
O        0.3651607386   -0.8156023577    2.1179034818
O       -1.5897085688    0.4136844512   -1.8197671387
H       -3.8999865047    5.3337361242    2.3077076667
H       -4.5203353215    3.2868588588    3.5685576602
H       -2.2928074195    5.1811110166    0.4202733617
H       -3.5459639033    1.1072450786    2.9561455846
H       -1.2951771038    3.0040374704   -0.1896066515
H       -2.0060215451   -0.1327525450    1.7351579609
H        2.3554232935    0.3572010717   -1.1321177981
H        2.3662836461   -1.3543062267   -1.6024383858
H        0.9291546848    0.1245083749   -3.8396317793
H       -0.5337898529   -0.8591587214   -3.6077578222
H        1.0513572680   -1.6155335797   -3.4662030271
H        2.1345272525   -1.5860528981    0.7637557995
28   

C       -3.5031308664    4.3690353988    1.9198412141
C       -3.7837721387    3.2805586455    2.7485555819
C       -2.6372057805    4.2087243841    0.8354575351
C       -3.2011227304    2.0345950199    2.4909437258
C       -2.0421403520    2.9657794978    0.5891824364
C       -2.3132450257    1.8608503860    1.4140811042
C       -0.5585533986    0.2239358846    0.4581799466
C        0.4094830717   -0.6788238276    1.0311056748
C       -0.5737900502    0.1834651367   -1.0381814923
C       -1.6809349210    0.5709532910    1.1814983987
C        1.7474860579   -0.6439403859   -1.0253803503
C        0.4882335469   -0.4717438812   -3.1820780623
N        1.4608168247   -1.1481249544    0.2948942630
N        0.5254114985   -0.3120150323   -1.7320599391
O        0.3245563772   -1.0773158859    2.1799024948
O       -1.5481764059    0.5947753567   -1.6519144963
H       -3.9569545257    5.3338859282    2.1162397778
H       -4.4510453212    3.4013699708    3.5943752466
H       -2.4261765828    5.0470717699    0.1815259876
H       -3.4289574517    1.2047095878    3.1503312879
H       -1.3781263016    2.8609079776   -0.2609371936
H       -1.9106914359   -0.1080768861    1.9966477798
H        2.3838415900    0.2445845464   -0.9510718409
H        2.2942238173   -1.4115021891   -1.5834410008
H        0.9726859679    0.3814498698   -3.6670839659
H       -0.5405178552   -0.5449906739   -3.5496885993
H        1.0027565521   -1.3918107353   -3.4767428105
H        2.0470385027   -1.8302747800    0.7603812760
28   

C       -3.5261323744    4.3227356600    1.7807081815
C       -3.7444633750    3.2834648327    2.6864590114
C       -2.6841616936    4.1195489541    0.6853872664
C       -3.1253673694    2.0437515918    2.4931862048
C       -2.0528440447    2.8834397983    0.5020569679
C       -2.2646423990    1.8228452537    1.4018539458
C       -0.5523735902    0.1162681034    0.4755546056
C        0.3819170845   -0.8572347393    0.9874795297
C       -0.5681414297    0.1771205109   -1.0189372246
C       -1.6017219237    0.5333862538    1.2552839502
C        1.7293325849   -0.7149061848   -1.0552599938
C        0.4865558352   -0.3597404999   -3.1996171043
N        1.4123909425   -1.3165537957    0.2164253949
N        0.5237969067   -0.2928394418   -1.7421656355
O        0.2986924487   -1.3106513305    2.1159433613
O       -1.5429686908    0.6177285566   -1.6109373214
H       -4.0080641403    5.2828578379    1.9268934460
H       -4.3920151199    3.4374267914    3.5421903735
H       -2.5176141288    4.9203623305   -0.0259082303
H       -3.3073588661    1.2539170777    3.2132637444
H       -1.4016541271    2.7611038785   -0.3540800405
H       -1.7828122653   -0.0868895347    2.1274903639
H        2.3885076522    0.1466647601   -0.9029701566
H        2.2615369935   -1.4495740754   -1.6688464998
H        0.9658365921    0.5255337470   -3.6290556907
H       -0.5420423405   -0.4161240236   -3.5705962278
H        1.0062952078   -1.2556702430   -3.5535195638
H        1.9862242514   -2.0351129529    0.6407173743
28   

C       -3.6686934919    4.4606401930    1.7853455887
C       -3.7723478183    3.4535318983    2.7449721689
C       -2.8789292003    4.2556377945    0.6528317607
C       -3.0938763746    2.2433265363    2.5664367833
C       -2.1880962512    3.0496173626    0.4828191097
C       -2.2890529636    2.0153855379    1.4334058598
C       -0.6164262485    0.2767703450    0.4624806051
C        0.3054874625   -0.7439596601    0.9014049208
C       -0.6535541906    0.4281227142   -1.0242559032
C       -1.5706485656    0.7515161512    1.3198164504
C        1.6364933889   -0.4763070361   -1.1349843293
C        0.3829837286    0.0161931226   -3.2443270437
N        1.3124954873   -1.1747538712    0.0844387733
N        0.4325818555    0.0046555360   -1.7853166395
O        0.2452964201   -1.2491839215    2.0091912199
O       -1.6497489423    0.8626293198   -1.5835549281
H       -4.1968819508    5.3978983887    1.9196301653
H       -4.3773325183    3.6092556980    3.6310290972
H       -2.7966625887    5.0333436393   -0.0977728150
H       -3.1897814163    1.4796158529    3.3300464217
H       -1.5717626377    2.9440288287   -0.3992784484
H       -1.6702817767    0.1718626468    2.2320874465
H        2.3001026432    0.3669352564   -0.9144581070
H        2.1654377336   -1.1629922791   -1.8044289920
H        0.9072996346    0.8955623725   -3.6311181077
H       -0.6478128995    0.0348720046   -3.6126345807
H        0.8521022800   -0.8868001426   -3.6475634944
H        1.8908930896   -1.9158927911    0.4609757483
28   

C       -3.7081406582    4.4360169484    1.7477056395
C       -3.7116484165    3.4774605310    2.7601406042
C       -2.9759190186    4.2042404427    0.5828062095
C       -2.9937110248    2.2878010405    2.6005524004
C       -2.2453487807    3.0192695454    0.4305119773
C       -2.2496747969    2.0277833295    1.4321895253
C       -0.6369354768    0.2197057124    0.4523287466
C        0.2410912271   -0.8507024644    0.8651834100
C       -0.6443921047    0.4254178471   -1.0275293286
C       -1.4954000090    0.7808751293    1.3524531878
C        1.6226082119   -0.5363100651   -1.1274066710
C        0.4353057966    0.0847598209   -3.2406064699
N        1.2424169283   -1.2867775841    0.0440397446
N        0.4510393526    0.0133668334   -1.7822301581
O        0.1599420001   -1.3836017519    1.9586349125
O       -1.6349984346    0.8604803926   -1.5952678438
H       -4.2674067079    5.3571728179    1.8667772118
H       -4.2699836323    3.6545543989    3.6724465448
H       -2.9672192156    4.9463715938   -0.2072662110
H       -3.0146982059    1.5630966491    3.4067767355
H       -1.6699413974    2.9100362646   -0.4767377997
H       -1.5371485950    0.2495131851    2.2979193283
H        2.3037853955    0.2739252446   -0.8452603264
H        2.1500850650   -1.2033274702   -1.8175858614
H        0.9889902315    0.9660422529   -3.5791116240
H       -0.5853737415    0.1432162270   -3.6320318741
H        0.8928243211   -0.8120583504   -3.6700581494
H        1.7965775723   -2.0536572380    0.4051612229
28   

C       -3.7688897064    4.4410151802    1.7723310892
C       -3.6505733917    3.5343327919    2.8238482504
C       -3.1172833030    4.1831995269    0.5664787303
C       -2.8946898121    2.3689737236    2.6616702456
C       -2.3476370441    3.0235640274    0.4105091104
C       -2.2323895424    2.0782602958    1.4507653261
C       -0.6758792316    0.2143017146    0.4516183265
C        0.1519837184   -0.9018231285    0.8483081184
C       -0.6348871279    0.4707834717   -1.0192342357
C       -1.4418727712    0.8525603615    1.3820495918
C        1.6040744230   -0.5582594970   -1.0857451332
C        0.5110987750    0.1856639970   -3.2087374097
N        1.1552338099   -1.3475199765    0.0348900069
N        0.4763874755    0.0628609848   -1.7536942451
O        0.0349550134   -1.4588445044    1.9264112828
O       -1.6121567825    0.9055752351   -1.6084636112
H       -4.3585834735    5.3428282934    1.8927605225
H       -4.1442292097    3.7324590868    3.7685591255
H       -3.2004565958    4.8867657843   -0.2540056868
H       -2.8238652023    1.6859176467    3.5007836436
H       -1.8364335879    2.9106045220   -0.5319627145
H       -1.4251953196    0.3604683923    2.3492094820
H        2.3026672785    0.2126586562   -0.7427139614
H        2.1322689148   -1.2121046357   -1.7879260413
H        1.1181150394    1.0493626785   -3.4974234045
H       -0.4911298919    0.3092989246   -3.6312235327
H        0.9382833105   -0.7173369113   -3.6561095713
H        1.6765930216   -2.1414671076    0.3862521664
28   

C       -3.8328085605    4.4480508485    1.8168569078
C       -3.5650807984    3.6196342322    2.9039675160
C       -3.2878829955    4.1413779828    0.5708982474
C       -2.7678966849    2.4828149567    2.7380871089
C       -2.4769830632    3.0108991177    0.4091981452
C       -2.2101927369    2.1404493356    1.4873272445
C       -0.6975305456    0.2311095879    0.4826879803
C        0.0858791479   -0.9159923286    0.8798711965
C       -0.5959032775    0.5240289068   -0.9781492033
C       -1.3785390157    0.9417304749    1.4277949484
C        1.6183880271   -0.5623151474   -0.9885642518
C        0.6448636151    0.2954140295   -3.1226524512
N        1.1017519678   -1.3718764960    0.0880513707
N        0.5380316641    0.1164962067   -1.6773874306
O       -0.0734526578   -1.4844295521    1.9465180050
O       -1.5594126529    0.9328601597   -1.6057766853
H       -4.4556792282    5.3269446074    1.9397965631
H       -3.9754103466    3.8558754178    3.8793072175
H       -3.4872805597    4.7842941463   -0.2788831634
H       -2.5834777176    1.8620539271    3.6077890830
H       -2.0624610450    2.8698332023   -0.5737335491
H       -1.2967834287    0.4949665922    2.4134750797
H        2.3299139301    0.1721188995   -0.5960932266
H        2.1474255615   -1.2122619441   -1.6939990868
H        1.6268949721    0.7059235423   -3.3775900183
H       -0.1069933722    0.9938315063   -3.5038268458
H        0.5130969625   -0.6643399602   -3.6320057072
H        1.5879063970   -2.1889619569    0.4368592908
28   

C       -3.8683248812    4.3962669372    1.8331927455
C       -3.2049890732    3.8326920103    2.9200533971
C       -3.7183460906    3.8269860876    0.5701196818
C       -2.3801331956    2.7184073488    2.7360057794
C       -2.8993639582    2.7055211673    0.3892534509
C       -2.1802111503    2.1379666805    1.4640320951
C       -0.7076732070    0.2076594637    0.4350667388
C       -0.0584873611   -1.0257285304    0.8292365934
C       -0.5410974475    0.5520283975   -1.0081595666
C       -1.3050384471    0.9713541738    1.3974625175
C        1.3114726455   -1.0674417148   -1.1912675029
C        0.5009947821    0.1334195210   -3.2135697697
N        0.7774949170   -1.6966758329   -0.0144851229
N        0.3340571883   -0.1897622889   -1.7997164369
O       -0.2148997359   -1.5238062138    1.9311004605
O       -1.0174744006    1.5551852730   -1.5075245866
H       -4.5067158116    5.2617664296    1.9702890144
H       -3.3284166210    4.2579198891    3.9096723311
H       -4.2505472535    4.2433883031   -0.2775762776
H       -1.8810566918    2.3102305254    3.6077294941
H       -2.9098504308    2.2811027011   -0.6000290349
H       -1.0799043730    0.6227048298    2.4001839693
H        2.2057537152   -0.4919502042   -0.9264668333
H        1.6013233674   -1.8436110352   -1.9071912516
H        1.2148757623    0.9557441180   -3.3287977227
H       -0.4533626238    0.4294861553   -3.6611236808
H        0.8681301718   -0.7368105640   -3.7663643743
H        1.1716521501   -2.5479221749    0.3670728380
28   

C       -3.9609394208    4.2912161744    1.7281808721
C       -3.2507612438    3.8344863375    2.8369993743
C       -3.7583840436    3.6886469587    0.4866289021
C       -2.3319900312    2.7892022974    2.6979984150
C       -2.8448833246    2.6359166760    0.3510253068
C       -2.0922747126    2.1753871305    1.4509623492
C       -0.5941193530    0.2612937064    0.4442298619
C        0.0026073004   -0.9920157273    0.8484156739
C       -0.3536808879    0.6293516613   -0.9810754992
C       -1.1377057581    1.0732784636    1.4022842037
C        1.2804064631   -1.2110693060   -1.2351714702
C        0.6425175146    0.1810695536   -3.1945292297
N        0.7595155808   -1.7416142215   -0.0037048361
N        0.4288584088   -0.1831763276   -1.7974888501
O       -0.1427562123   -1.4491279900    1.9693246824
O       -0.6994564101    1.7100268578   -1.4303200405
H       -4.6725726733    5.1025406198    1.8318123841
H       -3.4115961014    4.2884437605    3.8083129600
H       -4.3181127695    4.0278243833   -0.3774984820
H       -1.7983719877    2.4573152693    3.5815273951
H       -2.7798261431    2.1736690928   -0.6220681043
H       -0.8755818943    0.7688646187    2.4105410445
H        2.2780560452   -0.7947701463   -1.0557992216
H        1.3752889234   -2.0308511206   -1.9548996362
H        1.4053260077    0.9634434789   -3.2661693864
H       -0.2854194430    0.5490043979   -3.6443913068
H        0.9700519555   -0.6875111656   -3.7743477675
H        1.1130183446   -2.6008613263    0.3994167019
28   

C       -4.0350162189    4.2364312465    1.7340108036
C       -3.2644769649    3.8669915878    2.8361750765
C       -3.8237758199    3.6104728949    0.5047173879
C       -2.2802136520    2.8818791555    2.7040535650
C       -2.8453411392    2.6170195213    0.3766736155
C       -2.0423574250    2.2416202414    1.4715588177
C       -0.5770280419    0.3297687022    0.4469267067
C       -0.0283232336   -0.9419355086    0.8492740370
C       -0.2813660145    0.7185872075   -0.9620420450
C       -1.0286584283    1.1963826025    1.4095529631
C        1.1727596779   -1.2685019388   -1.2756378726
C        0.7239121277    0.2778099349   -3.1710541305
N        0.6679586790   -1.7387102001   -0.0117206119
N        0.4544949540   -0.1210457234   -1.7933088752
O       -0.1604022171   -1.3725038328    1.9821034209
O       -0.5710729650    1.8289655295   -1.3813120184
H       -4.7974457036    5.0008150912    1.8330763043
H       -3.4299564443    4.3415154288    3.7967937750
H       -4.4235715569    3.8876494010   -0.3545928568
H       -1.7000670826    2.6130915686    3.5796097039
H       -2.7479319230    2.1351697938   -0.5859531591
H       -0.7052250880    0.9321185377    2.4114497649
H        2.2296694310   -1.0037157945   -1.1596964978
H        1.1024987480   -2.0858688815   -2.0009096056
H        1.5521483982    0.9934245716   -3.1998018175
H       -0.1606631917    0.7408364426   -3.6205395206
H        0.9866526442   -0.5925799955   -3.7804806371
H        0.9990704550   -2.6010153373    0.4038815721
28   

C       -4.0936531087    4.1695518415    1.7688999850
C       -3.2626842477    3.8817955929    2.8524032328
C       -3.8764915871    3.5348607922    0.5444718486
C       -2.2144090920    2.9665750707    2.7078498975
C       -2.8354783239    2.6090909678    0.4052433950
C       -1.9805131175    2.3127023388    1.4830551351
C       -0.5511876252    0.4046177143    0.4365775974
C       -0.0494512263   -0.8768808957    0.8598787768
C       -0.1977732626    0.7804821995   -0.9624482624
C       -0.9062021502    1.3337567770    1.3879375061
C        1.0989644535   -1.3183666305   -1.2809338793
C        0.8521372544    0.3130076224   -3.1436210294
N        0.6049934865   -1.7214687683    0.0114425198
N        0.5171649951   -0.0881380431   -1.7810836817
O       -0.1757617097   -1.2683188904    2.0073030370
O       -0.4590731941    1.8974271029   -1.3855359358
H       -4.9053076528    4.8799673162    1.8780777536
H       -3.4315421333    4.3649074078    3.8081009059
H       -4.5171718039    3.7551808463   -0.3016709328
H       -1.5873952963    2.7569438287    3.5670433498
H       -2.7106562481    2.1229009127   -0.5534655216
H       -0.5098251415    1.1198437856    2.3755884823
H        2.1854470215   -1.1922362399   -1.2165673129
H        0.8898662231   -2.1212647333   -1.9955238649
H        1.7158803937    0.9857663946   -3.1356363010
H        0.0072685365    0.8247539397   -3.6161781894
H        1.0916424441   -0.5621220203   -3.7559184071
H        0.9201351928   -2.5766149838    0.4535437555
28   

C       -4.1589138912    4.1029264046    1.8555197614
C       -3.2551377383    3.8855255033    2.8974456903
C       -3.9647151709    3.4672982715    0.6270857144
C       -2.1583642410    3.0371531314    2.7087191063
C       -2.8758968208    2.6065374678    0.4451623221
C       -1.9552712106    2.3779487411    1.4824790095
C       -0.5755508761    0.4715813806    0.3902398747
C       -0.1347932273   -0.8180915597    0.8489457772
C       -0.1540982633    0.8131910850   -0.9990714067
C       -0.8344180784    1.4648461545    1.3182076623
C        1.0425158062   -1.3533864600   -1.2568467327
C        0.9807608446    0.2928830468   -3.1244729148
N        0.5011954835   -1.7072169066    0.0320048402
N        0.5693307714   -0.0848973496   -1.7763773454
O       -0.2816057874   -1.1681197014    2.0070179285
O       -0.4028569305    1.9220533123   -1.4514912113
H       -5.0077149112    4.7619108828    1.9993022720
H       -3.4054623433    4.3709914106    3.8550034782
H       -4.6578152587    3.6390003851   -0.1884520957
H       -1.4738681605    2.8785655949    3.5342558248
H       -2.7478439137    2.1233848110   -0.5161995892
H       -0.3510405905    1.3019889244    2.2763577239
H        2.1344845935   -1.3129659133   -1.1767077296
H        0.7812805670   -2.1429373953   -1.9691605482
H        1.8703005380    0.9296314929   -3.0811721348
H        0.1797918962    0.8350812076   -3.6378191491
H        1.2114377632   -0.5954430337   -3.7209718848
H        0.7869471043   -2.5552324827    0.5067097845
28   

C       -4.1906604990    4.0048399891    1.9649217109
C       -3.1979209012    3.8690924493    2.9383935059
C       -4.0404711580    3.3714348914    0.7286576556
C       -2.0566840987    3.1030420734    2.6744266303
C       -2.9063255849    2.5919994539    0.4728278866
C       -1.9011346043    2.4442260330    1.4419606516
C       -0.5181760663    0.5828847507    0.2702367871
C       -0.1451705181   -0.7114971441    0.7722590890
C        0.0133261744    0.8878462331   -1.0885083576
C       -0.7377236501    1.6154604011    1.1802476729
C        0.9676118186   -1.3987030914   -1.3317520136
C        1.2606378612    0.2993377887   -3.1310250104
N        0.4624962145   -1.6547648256   -0.0050707377
N        0.7134424146   -0.0596181660   -1.8267444792
O       -0.3096712862   -1.0115483220    1.9418270432
O       -0.1432953856    2.0101982656   -1.5491961042
H       -5.0737567616    4.6002881693    2.1674282723
H       -3.3135749011    4.3538309669    3.9011056550
H       -4.8018125554    3.4835782028   -0.0347410504
H       -1.3016686037    3.0049888934    3.4461046844
H       -2.7984929196    2.1117100227   -0.4934875541
H       -0.1573066095    1.5115643469    2.0914228614
H        2.0509210887   -1.5623643049   -1.3217649615
H        0.5194362992   -2.1206719616   -2.0221849884
H        2.1995312597    0.8484143418   -3.0067356339
H        0.5552500096    0.9219274266   -3.6913717278
H        1.4534048553   -0.5973337395   -3.7285744940
H        0.7325317964   -2.4844874004    0.5095185090
28   

C       -4.2207360904    3.2361095583    2.4829114970
C       -3.0656255328    3.3586937733    3.2590554371
C       -4.1703383110    2.5466701388    1.2686147990
C       -1.8622295093    2.7954031808    2.8194011648
C       -2.9689974953    1.9713401428    0.8378145843
C       -1.8000304753    2.0868046469    1.6072385305
C       -0.2945359970    0.4932011980    0.2095163405
C        0.0591244724   -0.8266242311    0.6666476938
C        0.3055234472    0.8056354534   -1.1339461989
C       -0.5629857322    1.4765270594    1.1682981049
C        0.3263212460   -1.5972672887   -1.6423060197
C        1.4602642366    0.0189680591   -3.1869346954
N        0.4179675763   -1.8050719459   -0.2181851869
N        0.6958870682   -0.2342905802   -1.9708281374
O        0.1036117376   -1.1085955764    1.8512616704
O        0.4835956620    1.9690989266   -1.4631712690
H       -5.1526767681    3.6744248648    2.8219004413
H       -3.1018224913    3.8872139943    4.2049189867
H       -5.0625389323    2.4568271011    0.6595325305
H       -0.9779801560    2.8961104938    3.4385187908
H       -2.9436335176    1.4409711138   -0.1071653471
H        0.2143673890    1.5547757932    1.9212208353
H        1.0024072511   -2.2943104217   -2.1486819845
H       -0.6951879821   -1.8000880162   -1.9818884988
H        2.5281969795   -0.1227439586   -2.9928913558
H        1.3030935272    1.0380941917   -3.5544554372
H        1.1485193715   -0.6662508541   -3.9814901186
H        0.7555419203   -2.6663352355    0.1939854924
