30   

C        7.4088334641   -5.7624291309    4.4739046734
C        8.5145548898   -9.1006975473    2.0651849967
C        8.9081599886   -8.8627213801    0.7504716569
C        7.5536450346   -8.2821900679    2.6631996209
C        5.8695105922   -6.0707447268    7.1918296471
C        8.3413217608   -7.8025540396    0.0416577914
C        6.7047432677   -6.2893308130    8.2914080823
C        7.2585750015   -3.9496331831    8.3279223322
C        6.9673925655   -7.2076076908    1.9631283576
C        5.7284023689   -4.7859564374    6.6416363492
C        7.4089986541   -5.2300385439    8.8676808109
C        7.3780141125   -6.9690194397    0.6265479242
C        6.4240076585   -3.7110003583    7.2290072286
C        6.1084805353   -5.8316144251    3.8837436596
C        5.9329487567   -6.3757122745    2.6157510687
N        8.4762617323   -5.7349945506    4.9414835756
N        4.8853724154   -4.5612509031    5.5605323947
N        4.9847101085   -5.1600439546    4.4187054262
O        4.7966623889   -6.1701124576    1.9578735073
Cl       8.4552948811   -5.4980091030   10.2392504744
Cl       6.7588018923   -5.6273664053   -0.3190243564
Cl       6.2804385693   -2.0832570098    6.5947385051
H        8.9520942629   -9.9206941607    2.6238528875
H        9.6539965982   -9.4947492657    0.2808064951
H        7.2530860917   -8.4924688992    3.6836287832
H        5.3251091892   -6.9002635836    6.7557462811
H        8.6535729535   -7.6105145598   -0.9783668056
H        6.8114846221   -7.2862302129    8.7027520697
H        7.8023138077   -3.1219150194    8.7665514816
H        4.2294431447   -5.5732356397    2.4799137664
30   

C        7.4340434616   -5.6053752183    4.3806631357
C        8.4829573633   -9.1135416699    2.1357420446
C        8.8624884945   -8.9512358313    0.8061066994
C        7.5376335034   -8.2540857959    2.6997213865
C        6.0126798597   -6.1751238487    7.1508048758
C        8.2981587119   -7.9246493760    0.0485518308
C        6.8782098003   -6.3748149527    8.2299397169
C        7.2432177542   -4.0021040626    8.3683210848
C        6.9500349056   -7.2129118027    1.9508901279
C        5.7580965532   -4.8824680681    6.6641747956
C        7.5027564272   -5.2891650085    8.8474204092
C        7.3503958570   -7.0494375785    0.5971363568
C        6.3754225922   -3.7823631036    7.2914017732
C        6.1170346657   -5.8311998838    3.8741944966
C        5.9375271114   -6.3380708243    2.5859440417
N        8.5161710659   -5.4474830755    4.7837739343
N        4.8751321047   -4.6775441016    5.6113588392
N        4.9653078900   -5.2617587263    4.4623188820
O        4.8528744645   -6.0141993870    1.8923555684
Cl       8.5836632328   -5.5334069701   10.1962743929
Cl       6.7505544121   -5.7516319841   -0.4206639978
Cl       6.0924651348   -2.1444358941    6.7347211087
H        8.9201360466   -9.9062709232    2.7327157218
H        9.5967568623   -9.6148102420    0.3624303956
H        7.2506636125   -8.4066823986    3.7341615750
H        5.5280087821   -7.0250872159    6.6847032305
H        8.6021238597   -7.7901239507   -0.9831536770
H        7.0685944264   -7.3773111632    8.5946916451
H        7.7252942444   -3.1537711387    8.8386237679
H        4.3016905747   -5.4105916224    2.4236083522
30   

C        7.4455351276   -5.4645795599    4.3275162015
C        8.4685986519   -9.1358231090    2.2169470027
C        8.8368096708   -9.0423122825    0.8782559631
C        7.5379730294   -8.2399618773    2.7471956585
C        6.1499827425   -6.2621474874    7.1425706120
C        8.2760714610   -8.0476009330    0.0777586426
C        7.0435151648   -6.4219017639    8.2050256922
C        7.2281080723   -4.0323904918    8.4010913222
C        6.9509864493   -7.2293533369    1.9559147465
C        5.7872006466   -4.9814165731    6.6958541263
C        7.5913737290   -5.3074612127    8.8435526267
C        7.3426244426   -7.1355705895    0.5901101824
C        6.3294420650   -3.8529565043    7.3420900385
C        6.1432556347   -5.8478668214    3.8836756551
C        5.9606342602   -6.3144753670    2.5735965907
N        8.5174163701   -5.1748067742    4.6813967680
N        4.8673677941   -4.8204781159    5.6674490826
N        4.9647921168   -5.3932763258    4.5139853921
O        4.9437916399   -5.8721950354    1.8471299589
Cl       8.7043275459   -5.5023155280   10.1741601061
Cl       6.7595628911   -5.8844493990   -0.4948219983
Cl       5.9140323185   -2.2281171867    6.8320305922
H        8.9038645085   -9.9032069318    2.8474852724
H        9.5602818423   -9.7339103551    0.4603725680
H        7.2629685060   -8.3411440354    3.7910829854
H        5.7231467605   -7.1345762815    6.6617247160
H        8.5730202810   -7.9661222419   -0.9615550937
H        7.3136905623   -7.4158118957    8.5416759454
H        7.6510899031   -3.1616968698    8.8871995784
H        4.4070107407   -5.2607841307    2.3838945513
30   

C        7.4350055742   -5.3207886432    4.2675276226
C        8.4456056019   -9.1526791594    2.2625257292
C        8.8013754870   -9.1242913332    0.9183251154
C        7.5337295664   -8.2205384247    2.7612870607
C        6.2674550997   -6.3302057173    7.1153765239
C        8.2458893976   -8.1589120849    0.0802278449
C        7.1813922829   -6.4426531645    8.1661384674
C        7.1890242298   -4.0501092210    8.4074666001
C        6.9512903245   -7.2353214034    1.9336471853
C        5.8025703488   -5.0726852816    6.6997673466
C        7.6505176164   -5.3026648128    8.8219670964
C        7.3306820844   -7.2103235523    0.5584542155
C        6.2672798693   -3.9186987133    7.3612722480
C        6.1716082716   -5.8533577842    3.8700775049
C        5.9902594090   -6.2756751409    2.5350625248
N        8.4761012452   -4.9044755374    4.5848478394
N        4.8545770639   -4.9648573258    5.6905843006
N        4.9717678381   -5.5218257291    4.5319382896
O        5.0591349430   -5.7133615482    1.7798840878
Cl       8.7864341733   -5.4393008909   10.1402666957
Cl       6.7607195816   -6.0090454372   -0.5889816714
Cl       5.7258754957   -2.3203476082    6.8869822679
H        8.8768508638   -9.8973740963    2.9223512967
H        9.5112043518   -9.8436850749    0.5246477230
H        7.2724145088   -8.2745130696    3.8120732159
H        5.9001979064   -7.2227862737    6.6225203150
H        8.5334989656   -8.1290203299   -0.9644999908
H        7.5272661324   -7.4199438430    8.4813761752
H        7.5512064132   -3.1595194970    8.9065096547
H        4.5397209934   -5.0886262843    2.3179995452
30   

C        7.4209746260   -5.1898542775    4.2369442718
C        8.3841905165   -9.1814917683    2.2851339316
C        8.7179432206   -9.2091553212    0.9361126213
C        7.5077647982   -8.2072480543    2.7659860192
C        6.3931816713   -6.3945397808    7.1132666749
C        8.1732344897   -8.2595014667    0.0743415889
C        7.3279198435   -6.4598676657    8.1492663486
C        7.1801593522   -4.0754488169    8.4246064849
C        6.9386827594   -7.2310237364    1.9165259070
C        5.8373852220   -5.1662278145    6.7245688972
C        7.7294452602   -5.3000715757    8.8151195230
C        7.2925972404   -7.2687907600    0.5321614028
C        6.2352670784   -3.9921079184    7.3941806422
C        6.2083674831   -5.8515453847    3.8791496148
C        6.0295282900   -6.2153145929    2.5129355336
N        8.4198226219   -4.6622314262    4.5226237712
N        4.8629052935   -5.1129862811    5.7371894902
N        4.9993776923   -5.6461450458    4.5702736280
O        5.2064935763   -5.5226940108    1.7432073273
Cl       8.8894759642   -5.3789236683   10.1169350929
Cl       6.7337440714   -6.1069460288   -0.6612487136
Cl       5.5813522380   -2.4275385718    6.9501245146
H        8.8062802612   -9.9147931663    2.9633918686
H        9.4017268953   -9.9605493697    0.5563494420
H        7.2682947037   -8.2221399934    3.8230913463
H        6.0771255699   -7.3028232933    6.6136710391
H        8.4424589529   -8.2756227946   -0.9756030165
H        7.7414461791   -7.4163640213    8.4461513499
H        7.4901013529   -3.1694118072    8.9309937398
H        4.7186973165   -4.8767252543    2.2853845584
30   

C        7.4067228046   -5.0467413213    4.2213712224
C        8.3133988008   -9.2251476731    2.2964004270
C        8.6111344357   -9.3139043399    0.9423291046
C        7.4881470025   -8.2007423820    2.7627838871
C        6.5291989626   -6.4388325617    7.1157916060
C        8.0776387897   -8.3776592576    0.0600261742
C        7.4753493402   -6.4352062245    8.1431288348
C        7.1456517605   -4.0702683418    8.4297620575
C        6.9356547229   -7.2299143392    1.8942628901
C        5.8745502242   -5.2569750932    6.7393613391
C        7.7913565707   -5.2501898110    8.8106378187
C        7.2466455929   -7.3374943651    0.5010653652
C        6.1868992991   -4.0571879334    7.4088071047
C        6.2692662889   -5.8362606944    3.8795692098
C        6.0992000884   -6.1464907901    2.4838271896
N        8.3423446774   -4.4075643179    4.4926918830
N        4.8851520232   -5.2817398704    5.7667160631
N        5.0582143111   -5.7841189118    4.5916547264
O        5.4018599143   -5.3397827690    1.7026473708
Cl       8.9643412404   -5.2440986780   10.1030957443
Cl       6.6893727090   -6.2171218032   -0.7327625772
Cl       5.4092066938   -2.5469493185    6.9765928634
H        8.7253021976   -9.9492694684    2.9906048813
H        9.2570378403  -10.1034848049    0.5738952399
H        7.2816950615   -8.1731208330    3.8263826464
H        6.2785711298   -7.3669247828    6.6155086973
H        8.3161474315   -8.4445242661   -0.9953461164
H        7.9635031978   -7.3581546506    8.4326932280
H        7.3894366787   -3.1446656382    8.9369365750
H        4.9589307397   -4.6604659099    2.2421169012
30   

C        5.9372704288   -7.1171198855    5.0130479338
C        9.3865525623   -7.0695753695    1.5281519519
C        9.2344911723   -7.7487034080    0.3265662142
C        8.2613958706   -6.6630656905    2.2458890831
C        5.6980554915   -4.9871605514    7.6565356785
C        7.9544040443   -8.0104951069   -0.1548551181
C        6.2765962896   -5.4600339254    8.8369679148
C        8.4547646473   -5.2478073206    7.8416837785
C        6.9459649250   -6.9220837415    1.7925076487
C        6.4913872632   -4.6511038431    6.5505651120
C        7.6621376511   -5.5923442803    8.9402912067
C        6.8055931987   -7.6121740316    0.5447801235
C        7.8934254221   -4.7767465642    6.6484933920
C        6.0752307887   -6.0981059409    4.0302329080
C        5.8021410072   -6.4972657289    2.6513144460
N        5.8079037663   -7.9588821224    5.8082227296
N        5.8809605575   -4.1325570549    5.4186850373
N        5.8594691712   -4.7322138491    4.2763322937
O        4.5589541808   -6.6823349599    2.2491925103
Cl       8.3938959695   -6.1627614268   10.4186402424
Cl       5.2690565038   -8.0358488774   -0.1959444660
Cl       8.9545412295   -4.3106969360    5.3332031484
H       10.3787042956   -6.8585335579    1.9117806237
H       10.1050503745   -8.0740420429   -0.2324736242
H        8.4364147981   -6.1387136942    3.1768558631
H        4.6206476448   -4.8831702539    7.5904915819
H        7.8376458892   -8.5422043396   -1.0922236152
H        5.6491114678   -5.7235496266    9.6807838726
H        9.5311617103   -5.3354356214    7.9185752265
H        3.9385833749   -6.3932368672    2.9411658890
30   

C        6.0588896918   -7.0799740361    4.8954892470
C        9.4150957669   -7.1516391243    1.5885169371
C        9.2474630672   -7.9378902155    0.4555166899
C        8.2998429173   -6.6328547181    2.2473722343
C        5.6777540585   -5.1215574373    7.6944630789
C        7.9623052392   -8.1990548000   -0.0139350156
C        6.3592799759   -5.5823758929    8.8233357140
C        8.4521521054   -5.1178910434    7.7355641064
C        6.9816456949   -6.8822631644    1.7995906586
C        6.3756049951   -4.6651685972    6.5675119880
C        7.7543940053   -5.5825933672    8.8541508689
C        6.8241020771   -7.6912112416    0.6295759368
C        7.7873658119   -4.6563095324    6.5924821041
C        6.0720869798   -5.9986020590    3.9689482899
C        5.8487993106   -6.3170070767    2.5849664348
N        6.0423091429   -7.9709166960    5.6463248077
N        5.6533413407   -4.1712013877    5.4906924470
N        5.6733921444   -4.6947407874    4.3111360564
O        4.6222717858   -6.3242527587    2.0889644088
Cl       8.6129330726   -6.1390432949   10.2683050348
Cl       5.2744948938   -8.1480802179   -0.0616205595
Cl       8.7317380597   -4.0375004222    5.2508427571
H       10.4112168516   -6.9429042818    1.9629185634
H       10.1097371801   -8.3488543608   -0.0581552931
H        8.4790850400   -6.0223643303    3.1241776158
H        4.5933321729   -5.1228136848    7.6845389492
H        7.8329114975   -8.8187013673   -0.8938858055
H        5.8043151848   -5.9403426826    9.6830625214
H        9.5345229065   -5.1033941217    7.7573811596
H        4.0032336396   -5.9446716719    2.7374005186
30   

C        6.2060101107   -7.0313569893    4.8434914631
C        9.4032973478   -7.2236462247    1.6025943628
C        9.2038564538   -8.0570833740    0.5082788409
C        8.3085460745   -6.6402587033    2.2419159333
C        5.6416016421   -5.1690245012    7.7211401443
C        7.9076586830   -8.3037049893    0.0600846591
C        6.3840947476   -5.5992486419    8.8231452075
C        8.4100622728   -4.9922794550    7.6806274579
C        6.9823760530   -6.8704855766    1.8103484879
C        6.2743274135   -4.6571661690    6.5797488494
C        7.7766770037   -5.5133436285    8.8126674567
C        6.7906122017   -7.7318458757    0.6864769266
C        7.6838448732   -4.5591629655    6.5636280858
C        6.0559800861   -5.9385720667    3.9407602165
C        5.8717650633   -6.2238300139    2.5594249026
N        6.3311186244   -7.9311893973    5.5732867587
N        5.4846627902   -4.2079361605    5.5298531863
N        5.5244021665   -4.6964685759    4.3351379064
O        4.6772973089   -6.0935130708    2.0034830718
Cl       8.7102342331   -6.0346389768   10.1923741674
Cl       5.2174859929   -8.1803943437    0.0461959292
Cl       8.5493559816   -3.8709744056    5.2022251548
H       10.4078856884   -7.0275110676    1.9608054384
H       10.0499659020   -8.5167773080    0.0092253185
H        8.5060681829   -5.9916275992    3.0875296833
H        4.5596371537   -5.2394820504    7.7428368528
H        7.7528755155   -8.9620026129   -0.7870614141
H        5.8785783638   -6.0017905049    9.6935964264
H        9.4897625737   -4.9123723647    7.6707872543
H        4.0721824562   -5.6590894099    2.6307449034
30   

C        6.3706007104   -6.9658032570    4.8205047074
C        9.4011398251   -7.2667166237    1.5890824596
C        9.1658013450   -8.1515922924    0.5421960357
C        8.3284033027   -6.6379236219    2.2233251588
C        5.5746791875   -5.1985592588    7.7466346119
C        7.8560565926   -8.4062917528    0.1381009473
C        6.3479054896   -5.5930132558    8.8407388308
C        8.3287969318   -4.8706181171    7.6866260912
C        6.9921942957   -6.8739018316    1.8312957305
C        6.1688556422   -4.6477274117    6.6027788301
C        7.7335943003   -5.4322683063    8.8200525632
C        6.7621986742   -7.7892787471    0.7620484540
C        7.5713963944   -4.4707614632    6.5775166774
C        6.0492721750   -5.8971223467    3.9316857094
C        5.9034578389   -6.1698924152    2.5549107317
N        6.6412380500   -7.8452340886    5.5356921032
N        5.3436764173   -4.2469246112    5.5597210213
N        5.4083142177   -4.7165365955    4.3577175488
O        4.7534202035   -5.9223863732    1.9451245803
Cl       8.7048029646   -5.9129441335   10.1885961768
Cl       5.1629649058   -8.2488561676    0.2006866668
Cl       8.3892664922   -3.7332348311    5.2121184656
H       10.4162045751   -7.0651945275    1.9130775334
H        9.9946354375   -8.6453211543    0.0466787638
H        8.5466053777   -5.9473847882    3.0303965338
H        4.4984706223   -5.3288464727    7.7758789017
H        7.6727154723   -9.1054045115   -0.6697075727
H        5.8717959100   -6.0272439046    9.7125351980
H        9.4027563544   -4.7343590151    7.6688206359
H        4.1592699233   -5.4505983388    2.5561244182
30   

C        6.5039044237   -6.9209392499    4.8000522386
C        9.4045387436   -7.3302120823    1.5727351146
C        9.1339219048   -8.2390191353    0.5542086268
C        8.3549264822   -6.6631582573    2.2071901664
C        5.5198299928   -5.2732611627    7.7646494103
C        7.8122902890   -8.4803949399    0.1796535753
C        6.3244394580   -5.6245814127    8.8506735046
C        8.2460257914   -4.7651041063    7.6903867287
C        7.0098232391   -6.8856456584    1.8419156443
C        6.0684173783   -4.6766322015    6.6211742360
C        7.6965877319   -5.3744299183    8.8223677583
C        6.7428400198   -7.8244155698    0.8057129327
C        7.4563919540   -4.4057023759    6.5895687687
C        6.0368460989   -5.8959649625    3.9230356869
C        5.9411662511   -6.1374189606    2.5459636769
N        6.8972509809   -7.7640629186    5.5020403394
N        5.2094684575   -4.3307915556    5.5851067858
N        5.2984849726   -4.7822721586    4.3770268178
O        4.8602673212   -5.7600487129    1.8765186714
Cl       8.7065826907   -5.8050254078   10.1795560672
Cl       5.1198739779   -8.2596135401    0.2973499416
Cl       8.2160143707   -3.6075917887    5.2243613059
H       10.4287515864   -7.1392027429    1.8734450004
H        9.9447102317   -8.7612716474    0.0580842004
H        8.5949856987   -5.9525551770    2.9906429261
H        4.4547531883   -5.4743681356    7.7992414273
H        7.6008679182   -9.1976076992   -0.6050602780
H        5.8834840966   -6.0959282648    9.7216622743
H        9.3090411521   -4.5607363489    7.6666554855
H        4.2699272874   -5.2656584924    2.4736280299
30   

C        6.6417824224   -6.8402206224    4.8031461460
C        9.4118691558   -7.3654175039    1.5639894955
C        9.1007740513   -8.2931570515    0.5735641506
C        8.3896619717   -6.6616268249    2.2039621628
C        5.4664895698   -5.3484069108    7.8052394491
C        7.7663791252   -8.5162549549    0.2323434128
C        6.2969034796   -5.6523747024    8.8859652077
C        8.1468827327   -4.6368299431    7.7355052939
C        7.0341564961   -6.8682959959    1.8720089889
C        5.9664828075   -4.6985826691    6.6687875900
C        7.6467320266   -5.3012870391    8.8593753391
C        6.7255963350   -7.8225167701    0.8656584146
C        7.3300507639   -4.3215699182    6.6406550631
C        6.0321899392   -5.8753067708    3.9442173457
C        5.9876343418   -6.0835288238    2.5655867613
N        7.1535380519   -7.6329085788    5.4875329096
N        5.0807172490   -4.4107344320    5.6372062905
N        5.1976714543   -4.8411160517    4.4233610860
O        4.9867036294   -5.5830024667    1.8513186224
Cl       8.6889594015   -5.6764748210   10.2086949194
Cl       5.0787768959   -8.2213340161    0.4090937313
Cl       8.0254165604   -3.4513885365    5.2851891151
H       10.4459521177   -7.1879078713    1.8380197609
H        9.8902610358   -8.8432402514    0.0731864619
H        8.6570616370   -5.9354431205    2.9640675419
H        4.4194255604   -5.6287190338    7.8379107929
H        7.5230283566   -9.2463384762   -0.5309089997
H        5.8936517227   -6.1662500308    9.7511181190
H        9.1921526847   -4.3551810427    7.7131215157
H        4.3971171133   -5.0769523451    2.4397391810
30   

C        6.7487598552   -6.7880782302    4.8092849220
C        9.3931746776   -7.4397479076    1.5344796185
C        9.0392397470   -8.3820740538    0.5717786552
C        8.4009025793   -6.7034264743    2.1853335806
C        5.4152521220   -5.4569079645    7.8330242032
C        7.6922577397   -8.5863339297    0.2683682225
C        6.2775827907   -5.6930553357    8.9055597339
C        8.0209650062   -4.5087016165    7.7501394171
C        7.0347379786   -6.8944898833    1.8923159325
C        5.8464254105   -4.7582948092    6.6976150773
C        7.5909765465   -5.2243135724    8.8717096124
C        6.6826746777   -7.8589484337    0.9140188428
C        7.1701286117   -4.2581958874    6.6641023506
C        6.0056774042   -5.9100666458    3.9611116813
C        6.0118548789   -6.0782403188    2.5810984261
N        7.3704854792   -7.5087981432    5.4822946273
N        4.9307351811   -4.5511118934    5.6723252931
N        5.0741223935   -4.9692978802    4.4564314070
O        5.1015829660   -5.4622295959    1.8342575484
Cl       8.6737778183   -5.5189070911   10.2091163544
Cl       5.0137722213   -8.2170901057    0.5094156250
Cl       7.7742940620   -3.3196597421    5.3105450598
H       10.4370884660   -7.2756195653    1.7779041433
H        9.8055172737   -8.9566044446    0.0628717142
H        8.6988003675   -5.9649244619    2.9218620183
H        4.3976222561   -5.8296387386    7.8705192902
H        7.4152698404   -9.3251567646   -0.4746990610
H        5.9280728911   -6.2467472897    9.7694844039
H        9.0375000498   -4.1366868275    7.7221668076
H        4.5071294332   -4.9520837758    2.4144661807
30   

C        6.8955024577   -6.6818074657    4.7914499320
C        9.3836013676   -7.5115229009    1.4525240814
C        8.9724741524   -8.4768830334    0.5357225450
C        8.4329534541   -6.7334570439    2.1172240122
C        5.3676715845   -5.5938570771    7.8166944640
C        7.6103365307   -8.6611379390    0.2908519249
C        6.2388694930   -5.7793976753    8.8919917442
C        7.8708016779   -4.3974672877    7.7943370975
C        7.0535265244   -6.9077898104    1.8845042036
C        5.7402163816   -4.8226112827    6.7082113875
C        7.5017912394   -5.1868714033    8.8879066954
C        6.6435460675   -7.8908128439    0.9517809075
C        7.0087964000   -4.1950289835    6.7067860950
C        6.0229157525   -5.9186130978    3.9547775861
C        6.0666587510   -6.0516126296    2.5735291312
N        7.6236340544   -7.3091382149    5.4513865815
N        4.8213389533   -4.6769577262    5.6753425861
N        5.0048895794   -5.0759846228    4.4577163292
O        5.2483088676   -5.3344237512    1.8103714617
Cl       8.5969219770   -5.4217322924   10.2271728341
Cl       4.9503104425   -8.2056637800    0.6222166688
Cl       7.5310136835   -3.1644013246    5.3867790421
H       10.4394608238   -7.3613807724    1.6489995123
H        9.7064320028   -9.0831435342    0.0160994400
H        8.7729832708   -5.9767407084    2.8160127970
H        4.3903743715   -6.0634229366    7.8299074063
H        7.2886900560   -9.4149427193   -0.4183698596
H        5.9363599289   -6.3909200569    9.7343262558
H        8.8480093732   -3.9309307537    7.7890242874
H        4.6524344890   -4.8172701976    2.3829955533
