37

C      1.41830    4.15989    2.39622
C     -0.43286    3.20437    2.67386
C     -0.53664    1.63692   -0.33883
C     -1.80286    1.72864   -0.77561
C     -2.09036    2.10956   -2.20815
C     -3.03434    1.46073    0.05511
C     -0.51267   -1.68806    1.42312
C      1.94598   -2.07525    1.12551
C      0.55894   -1.34821   -0.82968
C     -0.09154    1.26336    1.05026
C      1.08924    0.25627    1.10455
C      0.75109   -1.20117    0.69121
N      0.24559    4.27416    3.07856
N      1.49784    3.09431    1.60347
N      0.29660    2.48004    1.79937
O      2.18486    0.70116    0.31426
H      2.23313    4.86714    2.48141
H     -1.43157    2.92386    2.98274
H      0.27679    1.85052   -1.02782
H     -2.64727    1.31258   -2.71784
H     -2.71562    3.01018   -2.25485
H     -1.17268    2.29907   -2.77042
H     -3.67299    2.35227    0.08529
H     -2.81957    1.17145    1.08548
H     -3.63444    0.66178   -0.39805
H     -1.42028   -1.20521    1.04560
H     -0.45015   -1.51068    2.50414
H     -0.63740   -2.76594    1.27567
H      2.87081   -1.72714    0.65911
H      1.78136   -3.11805    0.83304
H      2.08125   -2.04920    2.21337
H      1.43163   -0.97191   -1.36847
H      0.42731   -2.40642   -1.08284
H     -0.32086   -0.80608   -1.18428
H     -0.91534    0.84600    1.62738
H      1.38725    0.22068    2.16556
H      2.40897    1.59978    0.62976
