17   

C        5.9158521151    0.1245285959   -0.8427791880
C        4.6764425716   -0.6282312984   -1.0436197808
C        5.9741688380    1.0500047884    0.1689329164
C        3.5816452153   -0.4470019345   -0.2372720023
C        4.8146092967    1.2603979064    1.0111313096
C        2.2659951024   -1.1421536125   -0.4086026817
C        2.1075631588   -2.3280657477   -1.3497845304
N        3.6763778100    0.5186272251    0.7948159385
O        4.8242462335    2.0843599519    1.9084027396
O        1.2844112229   -0.7092932295    0.1842437942
H        6.7741295165   -0.0417735138   -1.4858066840
H        4.6406100931   -1.3400601306   -1.8607793549
H        6.8598143987    1.6392566856    0.3624001206
H        2.8164820454   -3.1141604332   -1.0769386953
H        2.2903117253   -2.0123240346   -2.3800316525
H        1.0919022212   -2.7272766374   -1.2764452948
H        2.8787424272    0.7381232514    1.3833151978
17   

C        5.9079747361    0.1528480175   -0.8595982439
C        4.6589055294   -0.5745044709   -1.0908287193
C        5.9890274143    1.0089948765    0.2099259342
C        3.5834660551   -0.4497416214   -0.2487894074
C        4.8432078602    1.1730585297    1.0809013557
C        2.2471792405   -1.0928431639   -0.4736933631
C        2.1024881984   -2.3407470991   -1.3332314930
N        3.6987490503    0.4483619178    0.8404132963
O        4.8687075246    1.9445890310    2.0233295447
O        1.2419971995   -0.5386245452   -0.0465966649
H        6.7539931817    0.0251103860   -1.5272152668
H        4.5971822092   -1.2172855558   -1.9618579684
H        6.8814240270    1.5797458695    0.4264501898
H        2.7448697092   -3.1339392622   -0.9417091660
H        2.3838017550   -2.1193493581   -2.3656403092
H        1.0646330787   -2.6854677163   -1.3153675247
H        2.9024989556    0.6663353562    1.4308884980
17   

C        5.8956777836    0.2012281116   -0.9323449949
C        4.6328663803   -0.5018082196   -1.1635495827
C        6.0321052467    0.9650131839    0.1996922636
C        3.6045282893   -0.4538555016   -0.2576512753
C        4.9292379836    1.0586995464    1.1343346772
C        2.2465296070   -1.0559567065   -0.4933323175
C        2.0801107964   -2.3589225347   -1.2641537110
N        3.7723248812    0.3541492463    0.8932924260
O        5.0007244663    1.7538770909    2.1321657383
O        1.2512824461   -0.4054407909   -0.2061265544
H        6.7073696904    0.1300843493   -1.6491922755
H        4.5223791995   -1.0566359314   -2.0881608384
H        6.9362954642    1.5157892724    0.4189980608
H        2.4656222885   -3.1878939353   -0.6647419289
H        2.6183467273   -2.3175082003   -2.2132896397
H        1.0206091799   -2.5351993621   -1.4706776082
H        3.0021143675    0.5467526265    1.5249702628
17   

C        5.8836029070    0.2582818498   -0.9781711551
C        4.6132479791   -0.4209492860   -1.2363174634
C        6.0403605028    0.9450816317    0.1999125764
C        3.6013425379   -0.4282471819   -0.3126142550
C        4.9507352277    0.9836510610    1.1544692465
C        2.2352875803   -1.0068648768   -0.5900788114
C        2.0829501764   -2.3860419578   -1.2178049066
N        3.7851199117    0.3038179871    0.8852622414
O        5.0406361668    1.6093983777    2.1957961580
O        1.2549137168   -0.2830536710   -0.5134046149
H        6.6840310286    0.2309573403   -1.7105199547
H        4.4775945147   -0.9081830473   -2.1955156209
H        6.9508705560    1.4757276521    0.4415697493
H        2.1350028089   -3.1464227742   -0.4341496182
H        2.8756347646   -2.5722782945   -1.9453173882
H        1.1154897998   -2.4614213167   -1.7220345285
H        3.0271711929    0.4674843199    1.5387347954
17   

C        5.8667963774    0.3797743773   -1.0421656350
C        4.5899982013   -0.2778304771   -1.3226331220
C        6.0452657231    0.9858814927    0.1765706824
C        3.5912782317   -0.3358162693   -0.3893739771
C        4.9707006218    0.9642577271    1.1489272090
C        2.2241240464   -0.9227172934   -0.6800819235
C        2.0872052307   -2.3889208406   -1.0620190508
N        3.7946227151    0.3145639906    0.8516373235
O        5.0829258256    1.5083067741    2.2330608098
O        1.2725267753   -0.1776292616   -0.8361910436
H        6.6554690719    0.3967849131   -1.7874553465
H        4.4330535785   -0.7154140445   -2.3028979619
H        6.9627022206    1.4942746121    0.4390035018
H        2.0415788967   -2.9963435192   -0.1543285958
H        2.9447294613   -2.7071554376   -1.6597178156
H        1.1718314708   -2.5416807252   -1.6403877940
H        3.0559939258    0.4288954014    1.5362785976
17   

C        5.8226430218    0.5267111842   -1.1289760660
C        4.5511075813   -0.1149899769   -1.4645072484
C        6.0047949698    1.0086876750    0.1435071098
C        3.5478537131   -0.2468975202   -0.5457813942
C        4.9392068039    0.8744906990    1.1166460561
C        2.2190782802   -0.9123643688   -0.8553202577
C        2.0182805630   -2.3859386667   -0.5403706889
N        3.7625096165    0.2562204474    0.7605477867
O        5.0612231163    1.2864761215    2.2564316619
O        1.2871430145   -0.2533364983   -1.2786800561
H        6.6064901088    0.6226365305   -1.8733913467
H        4.4000437654   -0.4877255963   -2.4723875602
H        6.9207765309    1.4943005644    0.4504444456
H        2.4318548061   -2.6153800679    0.4450775403
H        2.5294443975   -2.9925696905   -1.2923367353
H        0.9520790701   -2.6290696787   -0.5467873842
H        3.0419993295    0.2703937234    1.4728286286
17   

C        5.7974502022    0.6506520764   -1.1635235673
C        4.5367766902    0.0094347126   -1.5381775611
C        5.9881633449    1.0202682763    0.1447217570
C        3.5413465505   -0.2103252775   -0.6269185319
C        4.9418645850    0.7708680262    1.1158296240
C        2.2620803939   -0.9397178983   -0.9788140454
C        1.9375262212   -2.2635494534   -0.3017555036
N        3.7713773413    0.1649549154    0.7202596786
O        5.0751656520    1.0697875889    2.2890599914
O        1.3949635532   -0.3917246713   -1.6356852497
H        6.5680664565    0.8293668324   -1.9064988666
H        4.3862063364   -0.2948645128   -2.5691217253
H        6.8983900863    1.4962836142    0.4823025879
H        2.2958900260   -2.2635209112    0.7304495845
H        2.4260618029   -3.0759418209   -0.8461957322
H        0.8569901232   -2.4316408770   -0.3049070484
H        3.0721019150    0.0818950714    1.4484014674
17   

C        5.7613838207    0.7971997436   -1.1484609924
C        4.5144051611    0.1466355658   -1.5509756486
C        5.9762198424    1.0477475854    0.1842007334
C        3.5492855179   -0.1866642816   -0.6395001967
C        4.9682141815    0.6668782836    1.1535469347
C        2.3169975310   -0.9543562677   -1.0464371933
C        1.8921431850   -2.1857151968   -0.2586333703
N        3.8063340707    0.0616294054    0.7321997307
O        5.1269935439    0.8520049486    2.3468904789
O        1.5514733184   -0.5003881308   -1.8801609597
H        6.5041414185    1.0728323185   -1.8901851324
H        4.3485764226   -0.0744691347   -2.6009237213
H        6.8793036082    1.5221334400    0.5426206612
H        1.7520060612   -1.9334709033    0.7949375747
H        2.6625481157   -2.9566294408   -0.3452702658
H        0.9531440780   -2.5790105428   -0.6585232170
H        3.1428697767   -0.1355678924    1.4713382028
17   

C        5.7522482812    0.8922189882   -1.1352176502
C        4.5300369650    0.2111095919   -1.5620081477
C        5.9808321037    1.0607364571    0.2081123438
C        3.5998078717   -0.2308578743   -0.6592301219
C        5.0117735764    0.5645696149    1.1651439690
C        2.4004493313   -1.0193468075   -1.1057766625
C        1.8642645712   -2.1567945281   -0.2480466808
N        3.8709519929   -0.0650652068    0.7223851959
O        5.1850497434    0.6740808902    2.3657773794
O        1.7582558882   -0.6634972888   -2.0813397249
H        6.4662885522    1.2538384856   -1.8681560945
H        4.3548380000    0.0546261461   -2.6222558803
H        6.8673438234    1.5527925147    0.5836623729
H        1.4180408964   -1.7585952937    0.6663803475
H        2.6791768912   -2.8382974710    0.0108451752
H        1.1040738870   -2.7136207151   -0.8034166377
H        3.2407385214   -0.3591098993    1.4583055735
17   

C        5.7388564395    0.9568460065   -1.1176602130
C        4.5306667650    0.2565790621   -1.5532354355
C        6.0049269026    1.0442306703    0.2264702156
C        3.6525239341   -0.2904090779   -0.6549309504
C        5.0887192813    0.4446118233    1.1761547601
C        2.4539807443   -1.0677588776   -1.1180386673
C        1.8004855032   -2.1018765538   -0.2114647810
N        3.9606942360   -0.2028199354    0.7264078111
O        5.2935480964    0.4857817957    2.3761101957
O        1.9254363648   -0.7978429940   -2.1860423422
H        6.4128738244    1.3969561966   -1.8455472547
H        4.3259650230    0.1719683922   -2.6165006066
H        6.8827934610    1.5473596053    0.6075998120
H        1.3527132341   -1.6099947446    0.6555352635
H        2.5492167828   -2.8247350352    0.1236508462
H        1.0189133665   -2.6351237378   -0.7603295605
H        3.3723983956   -0.5784582470    1.4597905855
17   

C        5.7067602256    1.0081259087   -1.1239322979
C        4.5285726370    0.2636271177   -1.5683312255
C        5.9966862723    1.0499360493    0.2173453048
C        3.7054487251   -0.3787117590   -0.6805186374
C        5.1342517924    0.3600142610    1.1556992875
C        2.5197847827   -1.1718559100   -1.1493680730
C        1.7700934848   -2.0938132884   -0.1968875136
N        4.0334609819   -0.3276589757    0.6983744980
O        5.3584639903    0.3637688622    2.3528852495
O        2.1089247694   -1.0374983989   -2.2928067971
H        6.3400598263    1.5167448217   -1.8436946249
H        4.3054328673    0.2233275800   -2.6305161292
H        6.8541365457    1.5830141841    0.6041912108
H        1.3201851787   -1.5103870338    0.6103980998
H        2.4586246130   -2.8319890203    0.2228902846
H        0.9775380284   -2.6198750277   -0.7369209152
H        3.4866312199   -0.7728706724    1.4248331863
17   

C        5.6717646001    1.0639868416   -1.1340210666
C        4.5259456542    0.2763829557   -1.5887287339
C        5.9832866270    1.0694226539    0.2030782112
C        3.7611081864   -0.4517666124   -0.7150190569
C        5.1749326758    0.2996603649    1.1273708664
C        2.5868448279   -1.2571693550   -1.1917704492
C        1.7421274283   -2.0633437573   -0.2139984939
N        4.1046674514   -0.4287647053    0.6608391242
O        5.4152192058    0.2758498566    2.3212040473
O        2.2979993940   -1.2712463204   -2.3796747577
H        6.2640297861    1.6334473419   -1.8430738419
H        4.2820115417    0.2740339213   -2.6470954125
H        6.8181035255    1.6324856001    0.5968809297
H        1.2978107394   -1.3974642557    0.5303583125
H        2.3637061690   -2.8108475976    0.2857628510
H        0.9393075036   -2.5756258735   -0.7521273459
H        3.5985470893   -0.9344672239    1.3771266018
17   

C        5.6032440145    1.1133734113   -1.1463752453
C        4.4926711631    0.2748161843   -1.5973546048
C        5.9437642101    1.1025980906    0.1836735675
C        3.7972412227   -0.5256767852   -0.7290774165
C        5.1999605402    0.2661136770    1.1043629200
C        2.6353004122   -1.3529533395   -1.1978756225
C        1.7039737395   -2.0278623549   -0.1997276821
N        4.1628088207   -0.5106984092    0.6410702557
O        5.4626584536    0.2322517216    2.2932234021
O        2.4609359928   -1.5396935368   -2.3933267147
H        6.1464566424    1.7334592802   -1.8522292835
H        4.2182236484    0.2912810465   -2.6481042848
H        6.7541436619    1.7020657478    0.5747775115
H        1.2736631923   -1.2789736970    0.4704880614
H        2.2562924371   -2.7688179062    0.3837504261
H        0.8915973167   -2.5310382550   -0.7320564333
H        3.7051727241   -1.0663093610    1.3530019359
17   

C        6.2646324544   -0.1042235232   -0.0290563394
C        5.2016605974   -1.0996667743   -0.1668776868
C        5.9218058910    1.2224928027    0.0569986261
C        3.8791654531   -0.7420714901   -0.1881625351
C        4.5240707941    1.6032857474    0.0099160230
C        2.8031174041   -1.7669852026   -0.4035259428
C        1.4439518129   -1.3619585377   -0.9576061160
N        3.5532291587    0.6360901302   -0.1161152398
O        4.1763999388    2.7692041684    0.0673658271
O        2.9716906851   -2.9186865758   -0.0316716827
H        7.3052980479   -0.4106087686    0.0019433940
H        5.4707810156   -2.1484267163   -0.2521726119
H        6.6633447000    2.0028977779    0.1576783820
H        1.5749782790   -0.8266936163   -1.9019317286
H        0.9240847813   -0.7201622001   -0.2420865315
H        0.8374783343   -2.2536274609   -1.1408489018
H        2.6055460046    0.9922103912   -0.1270405600
17   

C        6.2553280551   -0.1198954542   -0.0979052929
C        5.1842672215   -1.1105400017   -0.2042676826
C        5.9202016661    1.2013263132    0.0671632599
C        3.8645757574   -0.7562803635   -0.1116008681
C        4.5227519601    1.5807219363    0.1331813993
C        2.7738708443   -1.7682767120   -0.3256359304
C        1.4847954219   -1.3727880401   -1.0319321166
N        3.5450878477    0.6170891761    0.0355408054
O        4.1810214006    2.7431581677    0.2576813774
O        2.8478610604   -2.8717291498    0.1917436240
H        7.2954630043   -0.4247910998   -0.1524837569
H        5.4427600211   -2.1540499801   -0.3578100878
H        6.6673378406    1.9786795600    0.1482152512
H        1.7203754497   -0.8775121910   -1.9778481561
H        0.9041392293   -0.6956258040   -0.4009448782
H        0.8881420407   -2.2651175915   -1.2420123607
H        2.5989200947    0.9690144621    0.1138052830
17   

C        6.2272844726   -0.1397055622   -0.1880397244
C        5.1392162191   -1.1153863634   -0.2540694984
C        5.9213879269    1.1763666973    0.0554779273
C        3.8350699803   -0.7546262144   -0.0481453543
C        4.5375591136    1.5645827434    0.2427813974
C        2.7100581202   -1.7427273109   -0.2256238851
C        1.4988306407   -1.3739921589   -1.0708125544
N        3.5444004301    0.6141757137    0.1780631678
O        4.2202292699    2.7237660826    0.4406383683
O        2.6670714108   -2.7597157670    0.4460183003
H        7.2568265488   -0.4509588203   -0.3328895575
H        5.3726998350   -2.1537732573   -0.4685823481
H        6.6814919338    1.9432566487    0.1119471935
H        1.8118549557   -1.2187382001   -2.1067904371
H        1.0360549580   -0.4592378452   -0.6935333711
H        0.7633833488   -2.1830686587   -1.0421003328
H        2.6123748468    0.9668910050    0.3578334551
17   

C        6.1992284666   -0.1559825483   -0.3372012729
C        5.0916882610   -1.1108512265   -0.3862459378
C        5.9370151832    1.1430965281    0.0208399039
C        3.8129150645   -0.7479914620   -0.0658629252
C        4.5790718213    1.5339017100    0.3423076662
C        2.6433006371   -1.7024542371   -0.1830686826
C        1.5192569704   -1.4027092930   -1.1643375778
N        3.5669469117    0.6034611889    0.2828716358
O        4.3002396054    2.6786290683    0.6512509656
O        2.4842602734   -2.5917580194    0.6338754262
H        7.2093638705   -0.4692114941   -0.5807420133
H        5.2924779085   -2.1364197626   -0.6795208835
H        6.7130205154    1.8941469038    0.0737986971
H        1.7918718542   -1.7841516279   -2.1518836783
H        1.3501990219   -0.3255544593   -1.2352289274
H        0.5959224779   -1.8886460496   -0.8370132280
H        2.6609075690    0.9457859166    0.5794847368
17   

C        6.1504561186   -0.1305794066   -0.4545317993
C        5.0176085293   -1.0558283334   -0.4961741938
C        5.9448318586    1.1465293829    0.0052426676
C        3.7670383238   -0.6799469887   -0.0927472970
C        4.6202940231    1.5441470440    0.4387957745
C        2.5672923993   -1.6092903455   -0.1280453662
C        1.6352218499   -1.5977701840   -1.3288978588
N        3.5813757633    0.6440393689    0.3744876640
O        4.3951385582    2.6679794834    0.8511508857
O        2.3018030336   -2.3047498404    0.8352369586
H        7.1360947099   -0.4490026189   -0.7784077666
H        5.1790252530   -2.0691556181   -0.8492838016
H        6.7424107057    1.8743553569    0.0617197850
H        2.1056182114   -2.1282507762   -2.1607994189
H        1.4315242471   -0.5674431591   -1.6317665907
H        0.6918896898   -2.0900060396   -1.0763763913
H        2.7072676149    0.9746159278    0.7660672270
17   

C        6.0831807771   -0.0515949326   -0.5977070216
C        4.9153904775   -0.9320337403   -0.6467508212
C        5.9518615814    1.1906262883   -0.0283309420
C        3.6942522182   -0.5328527904   -0.1762688428
C        4.6694947659    1.5967812092    0.5113319468
C        2.4901168763   -1.4522332948   -0.1241555236
C        1.9160491254   -2.0330518827   -1.4077011589
N        3.5919769362    0.7453348522    0.4239015202
O        4.5180313602    2.6826091828    1.0423351491
O        2.1296882091   -1.9088465759    0.9467050932
H        7.0387123320   -0.3778216685   -0.9955604440
H        5.0319130614   -1.9305914905   -1.0545924690
H        6.7797634072    1.8822577879    0.0441271519
H        2.7170330894   -2.2442366093   -2.1202195324
H        1.2247782816   -1.3128661302   -1.8531394715
H        1.3764907842   -2.9592816815   -1.1915118793
H        2.7590841122    1.0552742073    0.9113461343
17   

C        6.0148596453   -0.0062253806   -0.7115337647
C        4.8362524857   -0.8712264875   -0.7783134840
C        5.9152564771    1.2007261361   -0.0653639154
C        3.6299478674   -0.4837633315   -0.2568374593
C        4.6540318084    1.5879247590    0.5341197420
C        2.4285075552   -1.3949924198   -0.1932650926
C        1.9894042512   -2.1960967183   -1.4118010449
N        3.5623541520    0.7582263727    0.4195064382
O        4.5358666969    2.6361148240    1.1434961950
O        1.9368128236   -1.6581980057    0.8929816472
H        6.9555367848   -0.3182988563   -1.1536918207
H        4.9421881525   -1.8482782287   -1.2365769975
H        6.7539788838    1.8768237913    0.0265350017
H        2.8532235721   -2.5275584724   -1.9916741941
H        1.3559196669   -1.5699764126   -2.0455785698
H        1.4183966941   -3.0734113241   -1.0952900255
H        2.7488653767    1.0354852335    0.9577081061
17   

C        5.9795701603    0.0335276251   -0.7635399356
C        4.7850138696   -0.8075839255   -0.8528403173
C        5.9170699567    1.2002464622   -0.0435799715
C        3.5972790777   -0.4367718741   -0.2765392429
C        4.6777950346    1.5703900027    0.6089789894
C        2.3735758340   -1.3102375635   -0.2338681400
C        2.0197295813   -2.2359306941   -1.3903519467
N        3.5701819379    0.7660332424    0.4706134860
O        4.5938389713    2.5805231254    1.2847242460
O        1.7457838108   -1.4009038984    0.8119685009
H        6.9034974787   -0.2650479127   -1.2482942745
H        4.8666473295   -1.7513756667   -1.3796630443
H        6.7691414504    1.8565015780    0.0673792985
H        2.8798744870   -2.8459486421   -1.6737309851
H        1.6997802433   -1.6394926796   -2.2488401058
H        1.2016928897   -2.9000992373   -1.0971535781
H        2.7690154694    1.0218500320    1.0380883311
17   

C        5.9502682807    0.0838725060   -0.8286863754
C        4.7376686839   -0.7309315204   -0.9200157073
C        5.9388435208    1.2040505176   -0.0358309965
C        3.5838576038   -0.3849710869   -0.2639081742
C        4.7341205120    1.5530420358    0.6890542093
C        2.3375478922   -1.2189739994   -0.2410791133
C        2.0390604353   -2.2291958491   -1.3398727411
N        3.6094311968    0.7726165187    0.5518148369
O        4.6953424101    2.5239321457    1.4238660446
O        1.6022919691   -1.1609443702    0.7366537706
H        6.8472609396   -0.1968072824   -1.3712736256
H        4.7742014385   -1.6339725415   -1.5190750677
H        6.8060098809    1.8396982501    0.0781307881
H        2.7903358508   -3.0226651941   -1.3332317707
H        2.0449550597   -1.7287366246   -2.3117804649
H        1.0530394113   -2.6737845692   -1.1774076972
H        2.8240970682    1.0162108791    1.1468645259
17   

C        5.9213977914    0.1137335287   -0.8343031026
C        4.7104396486   -0.6967258578   -0.9751631210
C        5.9203718844    1.1604179823    0.0533137246
C        3.5717258454   -0.4260322904   -0.2598670717
C        4.7276711637    1.4388054199    0.8266529531
C        2.3128572554   -1.2359473146   -0.3117005409
C        2.0916835633   -2.2971041804   -1.3804996442
N        3.6075672020    0.6601335888    0.6487753862
O        4.6952640961    2.3488038242    1.6359433284
O        1.4661278265   -1.0745732063    0.5597979753
H        6.8083002059   -0.1112896430   -1.4178706851
H        4.7357776274   -1.5331508163   -1.6647211534
H        6.7858891002    1.7905696675    0.2043310548
H        2.8260188973   -3.0985134310   -1.2664867448
H        2.1903827408   -1.8490507719   -2.3727013329
H        1.0877158687   -2.7197955896   -1.2820420904
H        2.8155632196    0.8692102752    1.2485725334
17   

C        5.9368578415    0.0968569784   -0.8680473348
C        4.7048948049   -0.6775506742   -1.0288789046
C        5.9794922647    1.0878034433    0.0804132586
C        3.5948888381   -0.4396215293   -0.2587513919
C        4.8110674141    1.3443253940    0.8970162765
C        2.2999404417   -1.1843748567   -0.3600517874
C        2.1025308925   -2.3101233400   -1.3656438541
N        3.6753594865    0.5908653135    0.7100472558
O        4.8120257894    2.2155214887    1.7485604350
O        1.3782794544   -0.8762857794    0.3874910119
H        6.8036266390   -0.1080674891   -1.4881275474
H        4.6894799569   -1.4564335617   -1.7830818610
H        6.8606224513    1.6923882642    0.2450444878
H        2.8228714913   -3.1094855381   -1.1735856125
H        2.2407316930   -1.9291348065   -2.3807802380
H        1.0909883905   -2.7161819463   -1.2749197226
H        2.8848858755    0.8109927918    1.3080686682
