19   

C        2.1670135276   -0.4885454445   -0.0248292305
C        0.8667345961   -0.3835906486    0.4526152054
C        3.1485067043   -1.0993542613    0.7575349298
C        0.5593290348   -0.8885957497    1.7143608380
C        3.8455313009   -3.0606841155    3.9269555919
C        6.1165535136   -2.6573393093    3.1789161499
C        2.8595678527   -1.6261686417    2.0394869149
C        1.5354982797   -1.5023338787    2.5111865296
C        3.9436541638   -2.2531196598    2.8176715337
N        5.2559536655   -2.0428233336    2.4045458545
O        1.1466515388   -1.9387536493    3.7453342233
S        5.4111196323   -3.5708188323    4.4988668234
H        2.4214718178   -0.0965160412   -1.0030178966
H        0.1007712303    0.0908992893   -0.1511296776
H        4.1511203061   -1.1633235806    0.3488856866
H       -0.4569956849   -0.7933610047    2.0757299558
H        2.9212881885   -3.3667618874    4.3938443197
H        7.1866665158   -2.6074580072    3.0149790084
H        0.2151393536   -1.7095227618    3.9017906972
19   

C        2.1435887410   -0.5681237315   -0.0585205298
C        0.8650158057   -0.3924088007    0.4603200964
C        3.1269632718   -1.1929314425    0.7111478503
C        0.5807644423   -0.8386840075    1.7508687894
C        3.8234142039   -3.2201153742    3.7912719859
C        6.1011834775   -2.5353382071    3.3018528358
C        2.8553042259   -1.6653321477    2.0135402712
C        1.5598704631   -1.4652098420    2.5330394600
C        3.9427949656   -2.2888855373    2.7904260251
N        5.2532108141   -1.9092502586    2.5217701331
O        1.2180337331   -1.8460218812    3.8001119669
S        5.3794295735   -3.6590940427    4.4425730439
H        2.3792512630   -0.2180032341   -1.0570904328
H        0.0985676754    0.0939162278   -0.1332972059
H        4.1182575735   -1.3137749692    0.2872641950
H       -0.4160765873   -0.6866837472    2.1455135760
H        2.8837123937   -3.6343892214    4.1291984658
H        7.1713030398   -2.3731065275    3.2465889052
H        0.3158424424   -1.5491280136    4.0063676420
19   

C        2.1117991488   -0.6269013515   -0.0850664444
C        0.8597469710   -0.3830862523    0.4738526205
C        3.0969969485   -1.2689350290    0.6687552774
C        0.6036275560   -0.7768487271    1.7885318796
C        3.8160946156   -3.3498648651    3.6511788978
C        6.0543157216   -2.4236836420    3.4473907673
C        2.8463203669   -1.6940259874    1.9875803346
C        1.5852664876   -1.4203775326    2.5526846005
C        3.9396097116   -2.3151981969    2.7622582456
N        5.2205586247   -1.7880727791    2.6590529346
O        1.2896817548   -1.7620538605    3.8427289711
S        5.3477315071   -3.7278064824    4.3922653405
H        2.3253988796   -0.3135760219   -1.1006694803
H        0.0927606147    0.1171926585   -0.1073355747
H        4.0740967584   -1.4396521769    0.2291136858
H       -0.3703789118   -0.5714816604    2.2147307556
H        2.8812781699   -3.8506068252    3.8648021222
H        7.1044708735   -2.1640686377    3.5130898518
H        0.4178172351   -1.4116909670    4.0907499802
19   

C        2.0836862433   -0.6758166371   -0.1004908412
C        0.8617516885   -0.3717029973    0.4973460674
C        3.0776855334   -1.3228802922    0.6380588925
C        0.6440822978   -0.7094057364    1.8353340925
C        3.8548287112   -3.4622146519    3.4858436267
C        6.0046392633   -2.3321325157    3.6158250703
C        2.8593909276   -1.6939537230    1.9760559761
C        1.6346546934   -1.3581410415    2.5827173849
C        3.9601996289   -2.3158469467    2.7465701108
N        5.1844305678   -1.6688644254    2.8359197104
O        1.3888275022   -1.6580719393    3.8933397791
S        5.3482194662   -3.8072720295    4.3157528119
H        2.2667822203   -0.4040931937   -1.1338812948
H        0.0885886838    0.1324223093   -0.0722142718
H        4.0350359512   -1.5387119117    0.1757097612
H       -0.3052751483   -0.4580957220    2.2914599711
H        2.9497079768   -4.0509744316    3.5522815999
H        7.0149309740   -1.9953985293    3.8169650110
H        0.5452620288   -1.2667283436    4.1749844722
19   

C        2.0516117936   -0.7300325738   -0.1249532842
C        0.8617458139   -0.3592457650    0.5012917330
C        3.0523835903   -1.3743176178    0.6074276274
C        0.6811950444   -0.6294902364    1.8605874508
C        3.9141958490   -3.5735415504    3.2568939604
C        5.9224155523   -2.3051728763    3.7862398671
C        2.8696401018   -1.6710326223    1.9676633929
C        1.6780546159   -1.2756505601    2.6013596980
C        3.9665434874   -2.3096999314    2.7380638445
N        5.1076812493   -1.5869788673    3.0506410465
O        1.4734554608   -1.5233363540    3.9296517131
S        5.3606433920   -3.9307755655    4.1616832656
H        2.2035487276   -0.5129643889   -1.1761742046
H        0.0837747010    0.1424133846   -0.0638869450
H        3.9844573270   -1.6451887180    0.1233708030
H       -0.2438743379   -0.3304587844    2.3373472348
H        3.0718668396   -4.2401934384    3.1301633625
H        6.8743140362   -1.9254047751    4.1386582731
H        0.6554406375   -1.0941317220    4.2301099322
19   

C        1.9971517795   -0.8307553416   -0.1428235631
C        0.8440691705   -0.3838260925    0.5031794885
C        3.0098614809   -1.4538189834    0.5916967130
C        0.7088130078   -0.5621785717    1.8830687886
C        4.0408610232   -3.6378935482    2.9839238118
C        5.8406342732   -2.3042894917    3.9369302302
C        2.8781835428   -1.6409143705    1.9766401346
C        1.7169939043   -1.1868164688    2.6268477622
C        3.9672859016   -2.2933378156    2.7492391525
N        4.9962522580   -1.5378159956    3.2890694381
O        1.5526936487   -1.3594047492    3.9724074754
S        5.4534104922   -4.0218747568    3.9305651353
H        2.1097761075   -0.6910995458   -1.2119869503
H        0.0571866640    0.1014910404   -0.0639332575
H        3.9100827403   -1.7908804710    0.0895309087
H       -0.1910604706   -0.2119715515    2.3730213017
H        3.3076144860   -4.3514361771    2.6329622532
H        6.7172321836   -1.9097085535    4.4373334008
H        0.7585973516   -0.8914305126    4.2782459959
19   

C        1.9280930126   -0.9459560369   -0.1465786147
C        0.8174031827   -0.4163460553    0.5105535981
C        2.9494919699   -1.5520705323    0.5898659555
C        0.7301069505   -0.5009193075    1.9029728734
C        4.2057606755   -3.6350100532    2.7252024425
C        5.7567983872   -2.3159968316    4.0592409133
C        2.8753465032   -1.6291669692    1.9902385441
C        1.7468023918   -1.1080356186    2.6498544149
C        3.9591757243   -2.2904790903    2.7581762694
N        4.8570645726   -1.5413047855    3.5026292095
O        1.6182995384   -1.2002382989    4.0071403736
S        5.5971785230   -4.0315712586    3.6976826204
H        2.0001789864   -0.8848299822   -1.2265785035
H        0.0239040964    0.0564074687   -0.0579588904
H        3.8136588647   -1.9577219890    0.0753241122
H       -0.1411958021   -0.0943479876    2.4009667623
H        3.6068883186   -4.3446431901    2.1704386937
H        6.5478303799   -1.9275400818    4.6900143465
H        0.8526083933   -0.6861053737    4.3103010274
19   

C        1.8594152690   -1.0479781106   -0.1418183304
C        0.7927377808   -0.4435757523    0.5219155834
C        2.8860336092   -1.6479803011    0.5918235935
C        0.7532857542   -0.4501884963    1.9184284536
C        4.3649488182   -3.5874951662    2.5343051583
C        5.6663087584   -2.3423844073    4.1705285580
C        2.8662811032   -1.6427521757    1.9977907942
C        1.7750061765   -1.0507923570    2.6642081135
C        3.9567111300   -2.2996638409    2.7525972833
N        4.7180897646   -1.5891791959    3.6682852435
O        1.6769056719   -1.0713316986    4.0270003217
S        5.7297043535   -3.9855041709    3.5432783257
H        1.8935254539   -1.0493384822   -1.2254234602
H       -0.0049165326    0.0250576082   -0.0441973819
H        3.7150055008   -2.1094108871    0.0666324211
H       -0.0872024218    0.0105832892    2.4221467622
H        3.8928607313   -4.2602192577    1.8311356517
H        6.3673479096   -1.9769949606    4.9118230149
H        0.9403432027   -0.5129044958    4.3227848692
19   

C        1.7952639026   -1.1383979881   -0.1359380852
C        0.7723152909   -0.4642197937    0.5264188923
C        2.8224372752   -1.7376490409    0.5966860166
C        0.7776754494   -0.4008183011    1.9209754278
C        4.4971941948   -3.5238019881    2.3966502303
C        5.5694661848   -2.4038015572    4.2698788268
C        2.8506293493   -1.6674839402    2.0033414641
C        1.7998531746   -1.0001818740    2.6679779281
C        3.9562470365   -2.3126776686    2.7405260045
N        4.5880996783   -1.6747531811    3.7975188343
O        1.7244623398   -0.9485159022    4.0313556196
S        5.8276997006   -3.9355819116    3.4450236825
H        1.7962164043   -1.1933340711   -1.2187059456
H       -0.0261366859    0.0044761630   -0.0385309782
H        3.6173567495   -2.2459814891    0.0627258470
H       -0.0309831547    0.1139335066    2.4245320971
H        4.1347516722   -4.1427753811    1.5873346381
H        6.1830375550   -2.0827779898    5.1035070114
H        1.0096010175   -0.3551252474    4.3107110629
19   

C        1.7318379345   -1.2157199268   -0.1149191846
C        0.7459228179   -0.4881630765    0.5430233419
C        2.7646019471   -1.8071139520    0.6152336674
C        0.7961849196   -0.3622869012    1.9309332276
C        4.6334758362   -3.4271531315    2.2959497069
C        5.4842024380   -2.4757251520    4.3629483804
C        2.8386540050   -1.6842870509    2.0199404236
C        1.8242885417   -0.9527560100    2.6779826754
C        3.9683649781   -2.3099472105    2.7363910260
N        4.4733464975   -1.7747401751    3.9121727520
O        1.7721988374   -0.8251316548    4.0373559513
S        5.9294246606   -3.8610501309    3.3781510447
H        1.7013076856   -1.3170830435   -1.1939224784
H       -0.0573497790   -0.0248854066   -0.0195783373
H        3.5285654314   -2.3479177321    0.0694357004
H        0.0157692216    0.1968029449    2.4317888919
H        4.3773541580   -3.9809146314    1.4036337985
H        6.0106993112   -2.2175259674    5.2743090683
H        1.0635987292   -0.2157868951    4.2964905148
19   

C        1.6719306353   -1.2958734324   -0.0962391309
C        0.7195530907   -0.5206314080    0.5520665045
C        2.7137344419   -1.8726743437    0.6319010657
C        0.8156654716   -0.3300246525    1.9283897911
C        4.7709525132   -3.3079012322    2.2146156845
C        5.3904262752   -2.5887311948    4.4473137461
C        2.8346265341   -1.6949446439    2.0310778532
C        1.8538211163   -0.9038042587    2.6755777406
C        3.9803939545   -2.3091725007    2.7348592227
N        4.3552206230   -1.9157162088    4.0113073160
O        1.8352303670   -0.6840071264    4.0238385291
S        6.0240559776   -3.7833738232    3.3294115918
H        1.6087530868   -1.4466780650   -1.1680478655
H       -0.0913368641   -0.0684958320   -0.0086949677
H        3.4417939279   -2.4480227179    0.0749825647
H        0.0627246121    0.2715896897    2.4220083202
H        4.6360014651   -3.7687463772    1.2472387413
H        5.8247156609   -2.4196881381    5.4257005700
H        1.1170302414   -0.0779155211    4.2624194061
19   

C        1.6188220629   -1.3746886029   -0.0698341387
C        0.6996165696   -0.5525250263    0.5659364092
C        2.6724576450   -1.9334012310    0.6549729935
C        0.8426653102   -0.2952912117    1.9262832400
C        4.9221541488   -3.1372738260    2.1610290285
C        5.2636926507   -2.7553281295    4.5308187158
C        2.8437008402   -1.6895366984    2.0406820030
C        1.8946340882   -0.8476209916    2.6708981702
C        3.9840958599   -2.3153326925    2.7462179541
N        4.2054504137   -2.1154235975    4.1015566806
O        1.9316184745   -0.5238151966    3.9975693896
S        6.1143215505   -3.6826263781    3.3102950782
H        1.5171509649   -1.5819731259   -1.1291883626
H       -0.1214056778   -0.1153337760    0.0080605832
H        3.3539696614   -2.5646601476    0.1016631026
H        0.1179702213    0.3481144091    2.4093862939
H        4.9448567450   -3.4274080478    1.1217841942
H        5.5898050356   -2.7150220266    5.5635054096
H        1.1942562978    0.0616309849    4.2286365941
19   

C        1.5756661362   -1.4584753809   -0.0467069043
C        0.6884159375   -0.5879374577    0.5723793835
C        2.6400385562   -1.9991268349    0.6765197815
C        0.8749934329   -0.2620326998    1.9135723215
C        5.0438393484   -2.9391115374    2.1382301570
C        5.1401747821   -2.9387314346    4.5624600926
C        2.8524463632   -1.6844867359    2.0402538617
C        1.9398169773   -0.7938169836    2.6542735456
C        3.9818756343   -2.3175588396    2.7538159092
N        4.0602336826   -2.3312744354    4.1388685593
O        2.0525045204   -0.3816207561    3.9519111160
S        6.1826498557   -3.5674952115    3.2989955460
H        1.4366681852   -1.7221916660   -1.0891273806
H       -0.1415156875   -0.1659555979    0.0159912382
H        3.2882171422   -2.6899400341    0.1531639708
H        0.1792984710    0.4228685063    2.3820149164
H        5.1845075419   -3.0197490703    1.0704639807
H        5.3725079401   -3.0464429152    5.6154768293
H        1.3048803352    0.1846642987    4.1977916332
19   

C        2.0376315087   -0.4603501693    0.0386724798
C        0.7799029756   -0.3354785023    0.6190386944
C        3.0744197408   -1.0692545880    0.7484383585
C        0.5689171478   -0.8157570196    1.9111400879
C        5.3266798372   -1.9331010989    2.5160754140
C        4.9375979774   -3.6935755500    4.1441843663
C        2.8792801933   -1.5699764579    2.0541494782
C        1.6001353876   -1.4262038984    2.6375555159
C        4.0058221477   -2.2274820184    2.7466454074
N        3.8026419027   -3.2410719359    3.6713969207
O        1.3246006861   -1.8231249950    3.9156189481
S        6.3768817027   -2.9280415826    3.4887390759
H        2.2097931343   -0.0912415344   -0.9661016956
H       -0.0295423610    0.1347187457    0.0712195163
H        4.0355500817   -1.1704956672    0.2585524978
H       -0.4118279220   -0.7014021320    2.3556050436
H        5.6744808663   -1.1697841333    1.8342690217
H        4.9857690219   -4.4856097499    4.8822934083
H        0.3782858392   -1.7294028884    4.1060633349
19   

C        2.0238894770   -0.5515176425   -0.0100165168
C        0.7818240637   -0.3666936334    0.5922415405
C        3.0620948294   -1.1521400609    0.7057596488
C        0.5875271554   -0.7762731347    1.9125644239
C        5.3007592772   -1.8001258156    2.6558359496
C        4.9480854291   -3.7768954135    4.0274336167
C        2.8761670080   -1.5861203729    2.0330091111
C        1.6211216055   -1.3768272286    2.6427084933
C        3.9996448211   -2.2186634689    2.7538679696
N        3.8134622705   -3.3577751392    3.5227665322
O        1.3867144799   -1.7104297778    3.9468990393
S        6.3599550373   -2.8252234833    3.5865186290
H        2.1824344064   -0.2338903150   -1.0344098260
H       -0.0279023297    0.0972538928    0.0395519906
H        4.0176122343   -1.3000757318    0.2153415672
H       -0.3784434404   -0.6138984994    2.3740912738
H        5.6203180376   -0.9399026761    2.0836601877
H        5.0133227539   -4.6514686390    4.6640861747
H        0.4461983999   -1.6070323293    4.1611739804
19   

C        1.9988863044   -0.6496094121   -0.0468867684
C        0.7808578145   -0.3908079895    0.5800424797
C        3.0375089944   -1.2491003133    0.6700796493
C        0.6102771508   -0.7250690345    1.9257782502
C        5.2498999886   -1.6931701182    2.8212567930
C        4.9785700253   -3.8553779755    3.9039737759
C        2.8697709514   -1.6077844189    2.0193097981
C        1.6449220078   -1.3236910473    2.6551628275
C        3.9906741597   -2.2258010665    2.7621589508
N        3.8499678210   -3.4689838448    3.3602466551
O        1.4504789574   -1.5965964949    3.9799096459
S        6.3261674148   -2.7408757260    3.7061056686
H        2.1384532531   -0.3889193388   -1.0899255071
H       -0.0283972611    0.0724893588    0.0261328152
H        3.9788791782   -1.4527204579    0.1717825700
H       -0.3357354552   -0.5067031233    2.4051922568
H        5.5268182367   -0.7458468764    2.3788002525
H        5.0777187073   -4.7979978126    4.4294455324
H        0.5204458274   -1.4606216621    4.2215779905
19   

C        1.9667012012   -0.7588038990   -0.0876256488
C        0.7778525448   -0.4198817274    0.5586521214
C        3.0063903562   -1.3526365481    0.6330731098
C        0.6362202572   -0.6711139410    1.9262685543
C        5.1634971999   -1.5977473822    3.0336935069
C        5.0291004093   -3.9134768281    3.7715677041
C        2.8668449360   -1.6203856579    2.0047082277
C        1.6725214247   -1.2635770587    2.6578070826
C        3.9855171922   -2.2360653805    2.7606188658
N        3.9215553936   -3.5605277351    3.1647263900
O        1.5137316139   -1.4699787124    3.9992281918
S        6.2594023718   -2.6586946607    3.8777353289
H        2.0827799148   -0.5645393017   -1.1478704231
H       -0.0316693576    0.0393578113    0.0017698289
H        3.9268551456   -1.6193524383    0.1254338878
H       -0.2878094580   -0.3952507866    2.4187482431
H        5.3708290097   -0.5717176373    2.7611765421
H        5.1803873826   -4.9091740210    4.1718245957
H        0.5978152240   -1.2865952823    4.2637815555
19   

C        1.9275085200   -0.8780788169   -0.1229699903
C        0.7746318616   -0.4545056518    0.5389342909
C        2.9746925754   -1.4541170281    0.6015329651
C        0.6739883377   -0.6093037068    1.9246060268
C        5.0344581897   -1.5357150825    3.3047935589
C        5.0908800202   -3.9460575134    3.6409221607
C        2.8824623781   -1.6076483833    1.9937801459
C        1.7184311544   -1.1834384250    2.6589806755
C        3.9972624715   -2.2333371132    2.7517472240
N        4.0352778011   -3.6058348908    2.9408208167
O        1.5982853836   -1.3109331914    4.0141990779
S        6.1371768362   -2.6129728747    4.1186710374
H        2.0094437648   -0.7649063299   -1.1980403234
H       -0.0403217839   -0.0085987568   -0.0208439439
H        3.8655552679   -1.7925696691    0.0838534157
H       -0.2252753469   -0.2758636421    2.4272133569
H        5.1359030911   -0.4604153768    3.2464349218
H        5.3068803337   -4.9750964601    3.9034937655
H        0.6982166250   -1.0799979291    4.2964602862
19   

C        1.8838587594   -0.9847737168   -0.1380537502
C        0.7670295079   -0.4820935614    0.5294005374
C        2.9396745805   -1.5386781895    0.5909531885
C        0.7089845470   -0.5418604875    1.9245470661
C        4.8738759271   -1.5518502964    3.5671590448
C        5.1600393961   -3.9671397804    3.4865342553
C        2.9000273873   -1.5809635377    1.9938930511
C        1.7627685086   -1.0938961785    2.6626528570
C        4.0094630124   -2.2203129983    2.7454646706
N        4.1693332474   -3.5971346177    2.7104604217
O        1.6754591923   -1.1411091820    4.0256388030
S        5.9829665216   -2.6592990937    4.3300180876
H        1.9305919751   -0.9526617073   -1.2206684242
H       -0.0547757023   -0.0530951318   -0.0335573594
H        3.7990848155   -1.9460457261    0.0695027788
H       -0.1663558751   -0.1548890597    2.4310102267
H        4.8453091826   -0.4823076337    3.7261162340
H        5.4519690050   -5.0045243869    3.6011841986
H        0.7899765062   -0.8668190285    4.3160288507
19   

C        1.8660445042   -1.0522170688   -0.1394390960
C        0.7800254515   -0.4777529043    0.5190309887
C        2.9191057374   -1.5969968303    0.5997833183
C        0.7495944903   -0.4593683485    1.9155953836
C        4.7292144670   -1.6236998533    3.7642603613
C        5.2583996877   -3.9562310721    3.3227307048
C        2.9133908422   -1.5578393019    2.0047734382
C        1.8007401122   -1.0028698868    2.6641801094
C        4.0132735737   -2.2063006718    2.7544126991
N        4.3103826039   -3.5406842167    2.5168128188
O        1.7265250479   -0.9791879295    4.0287516167
S        5.8688084816   -2.7503977015    4.4497600133
H        1.8910479667   -1.0842685499   -1.2227680761
H       -0.0402197773   -0.0557900331   -0.0514661821
H        3.7524293279   -2.0622996780    0.0840945495
H       -0.1046027715   -0.0200059601    2.4153891123
H        4.5785155183   -0.6046630407    4.0946367069
H        5.6384630467   -4.9708675525    3.2982103225
H        0.8542002915   -0.6585938415    4.3122047432
19   

C        1.8461868612   -1.1071161432   -0.1407373160
C        0.7901503022   -0.4632088815    0.4992910402
C        2.8880072017   -1.6523375596    0.6131953244
C        0.7793349912   -0.3757838633    1.8925824622
C        4.6017075588   -1.7064183018    3.8999334375
C        5.3778225383   -3.8938474396    3.1775499187
C        2.9038884267   -1.5510405945    2.0175953122
C        1.8188613394   -0.9201350578    2.6572641841
C        3.9978860273   -2.1954652065    2.7720167351
N        4.4428247271   -3.4490842495    2.3721973756
O        1.7458587617   -0.8283558011    4.0190912731
S        5.8003926591   -2.8185726239    4.5034511069
H        1.8578718817   -1.1920135692   -1.2214329535
H       -0.0218655073   -0.0405070841   -0.0823276186
H        3.6977684196   -2.1658286505    0.1054879641
H       -0.0530839195    0.1178373311    2.3783052209
H        4.3495466077   -0.7572001684    4.3534298884
H        5.8564238259   -4.8560165231    3.0371429204
H        0.8896282706   -0.4528267753    4.2841640658
19   

C        1.8195921745   -1.1736501038   -0.1341852721
C        0.8020326114   -0.4579290494    0.4880180012
C        2.8455477956   -1.7322150122    0.6308109323
C        0.8151886853   -0.3112289851    1.8750237154
C        4.4936348453   -1.8275394554    4.0007150538
C        5.5079881144   -3.8231174874    3.0597662840
C        2.8852784093   -1.5821581813    2.0340514310
C        1.8383270413   -0.8688231825    2.6530040658
C        3.9770513763   -2.2214147237    2.7919360845
N        4.5700323002   -3.3641459487    2.2665726251
O        1.7673123459   -0.7126279853    4.0086969007
S        5.7637945499   -2.8972797434    4.5302670304
H        1.8159848284   -1.3018730531   -1.2106651888
H        0.0022141751   -0.0238215029   -0.1020477291
H        3.6252062826   -2.2908285496    0.1238309980
H        0.0116007678    0.2402400125    2.3469018286
H        4.1598286953   -0.9597104968    4.5523509068
H        6.0859227706   -4.7093874644    2.8251477402
H        0.9362077456   -0.2708956394    4.2511307118
19   

C        1.7713231056   -1.2485003500   -0.1249638554
C        0.7974220394   -0.4626226282    0.4780337107
C        2.7841115193   -1.8174696789    0.6490174084
C        0.8428454034   -0.2552702813    1.8551566530
C        4.3732471562   -1.9765794991    4.0880610276
C        5.6230595738   -3.7283417986    2.9704536807
C        2.8557750506   -1.6159827465    2.0485475311
C        1.8528328412   -0.8222540825    2.6444380713
C        3.9477419450   -2.2509626867    2.8090124676
N        4.6850494027   -3.2543645711    2.1872594916
O        1.7967089382   -0.5883428922    3.9886551030
S        5.7117262734   -2.9894682965    4.5580758155
H        1.7461869207   -1.4216650676   -1.1948568941
H        0.0079509437   -0.0190468810   -0.1188955330
H        3.5266411157   -2.4231582405    0.1409706442
H        0.0729496033    0.3540498783    2.3118438111
H        3.9540781673   -1.2198582113    4.7342522051
H        6.2973128896   -4.5178703953    2.6597573339
H        1.0029048264   -0.0704546749    4.2040778067
19   

C        1.6904795092   -1.3422053166   -0.1042461931
C        0.7646588642   -0.4925131403    0.4856444580
C        2.7059806299   -1.9085723769    0.6676018775
C        0.8634544055   -0.2161265287    1.8470697072
C        4.2373420578   -2.1651727396    4.1486917952
C        5.7281400874   -3.6102693769    2.9005254918
C        2.8292847410   -1.6439767760    2.0548688362
C        1.8779748236   -0.7775463467    2.6351328430
C        3.9262528502   -2.2756264943    2.8111664720
N        4.8000085815   -3.1118295343    2.1214577181
O        1.8832738566   -0.4405957713    3.9576894209
S        5.6381271689   -3.1102759790    4.5766708110
H        1.6265642049   -1.5668364090   -1.1629043547
H       -0.0264852669   -0.0497240808   -0.1096548377
H        3.4055394301   -2.5657765078    0.1629721496
H        0.1336705172    0.4485459946    2.2922885427
H        3.7008355265   -1.5738621241    4.8741250643
H        6.4958746806   -4.2827150214    2.5359880770
H        1.1472308361    0.1643648588    4.1501102130
