18   

C       -0.8336739444   -1.4334048861   -1.2121064144
C       -0.1697352743   -0.3462281972   -0.7128072135
C       -0.3635225376   -2.8679003690   -1.3806014513
C        1.0099959004    1.2742040834    0.7969273911
C       -1.4286617986    0.7542900813    1.1389839673
C       -0.0714820229    0.1949722070    0.7084843031
H       -1.4514705619   -1.1684394527   -2.0637476252
H       -0.0551192718    0.4501243251   -1.4408994105
H       -0.4133051679   -3.1636592338   -2.4327678564
H       -0.9968059218   -3.5395809010   -0.7939386308
H        0.6699444768   -2.9693058821   -1.0359912473
H        0.7760701676    2.1147442145    0.1359399608
H        1.9795272659    0.8576389652    0.5058078269
H        1.0900988514    1.6471529087    1.8229020897
H       -1.7327754709    1.5724695014    0.4780753089
H       -1.3764575849    1.1324567943    2.1646952947
H       -2.1913200601   -0.0296629582    1.0978790785
H        0.2014647486   -0.6273475459    1.3783969042
18   

C       -0.8398098099   -1.3706223320   -1.3092607874
C       -0.2381922569   -0.2587590809   -0.8086617955
C       -0.3285775671   -2.7972180965   -1.2894481677
C        1.0277175385    1.2026438793    0.7795798260
C       -1.4250354171    0.7622594478    1.1295400732
C       -0.0988465488    0.1768490060    0.6409115911
H       -1.4023584610   -1.1781839091   -2.2167616542
H       -0.2282018477    0.5852762617   -1.4905399503
H       -0.2832776741   -3.1978889820   -2.3064987696
H       -0.9959209094   -3.4245203042   -0.6914250355
H        0.6739565398   -2.8344546599   -0.8525447826
H        0.8187447982    2.0930722443    0.1782322980
H        1.9744525627    0.7671060439    0.4445926960
H        1.1388392320    1.5042733245    1.8259207451
H       -1.7024595832    1.6362286290    0.5313265812
H       -1.3436295987    1.0658135900    2.1779016877
H       -2.2209410780    0.0154743690    1.0466917762
H        0.1469790660   -0.6990543546    1.2508221016
18   

C       -0.8242707866   -1.3267154368   -1.4061564564
C       -0.3063203137   -0.1906083648   -0.8872719649
C       -0.3033438095   -2.7334403086   -1.2091878921
C        1.0328498084    1.1354280656    0.7500781447
C       -1.4263912609    0.7577414199    1.1217401383
C       -0.1291516213    0.1556099950    0.5789616335
H       -1.3230767042   -1.1957681775   -2.3605942501
H       -0.3611228642    0.6788407418   -1.5341143528
H       -0.1634690119   -3.2232991961   -2.1773881073
H       -1.0159012397   -3.3158575065   -0.6179010174
H        0.6567397702   -2.7143988417   -0.6844445391
H        0.8425589318    2.0628983559    0.2007331906
H        1.9585743170    0.6885224107    0.3739161151
H        1.1723249834    1.3767556457    1.8086028653
H       -1.6828056582    1.6727097447    0.5779711401
H       -1.3185334788    0.9989299395    2.1838410619
H       -2.2486211907    0.0437245184    1.0112135110
H        0.0958480774   -0.7590709599    1.1378454952
18   

C       -0.7716014029   -1.2839270259   -1.4816174882
C       -0.3574211586   -0.1310372482   -0.9214606145
C       -0.2866689025   -2.6744479848   -1.1472949851
C        1.0373605248    1.0982524430    0.7371036111
C       -1.4214168265    0.7573097815    1.1397823737
C       -0.1473685130    0.1490367118    0.5511803067
H       -1.1940094115   -1.1882292555   -2.4762213568
H       -0.4549392517    0.7542317795   -1.5411892582
H       -0.0750064046   -3.2298146405   -2.0658133686
H       -1.0526480028   -3.2104149140   -0.5792714413
H        0.6287940763   -2.6286686747   -0.5496671114
H        0.8556440015    2.0497874779    0.2273869680
H        1.9465467474    0.6482591120    0.3259241836
H        1.2015565764    1.2956792120    1.8011622032
H       -1.6667872753    1.6985777688    0.6374126133
H       -1.2905178008    0.9533259793    2.2085916008
H       -2.2608098258    0.0658285728    1.0155567738
H        0.0672700290   -0.7893264612    1.0732702960
18   

C       -0.6957058745   -1.2545540246   -1.5481569768
C       -0.3985501179   -0.0926264753   -0.9421290880
C       -0.2818812106   -2.6388601118   -1.1160452258
C        1.0400276132    1.0735054445    0.7185946171
C       -1.4155840851    0.7589254805    1.1545461165
C       -0.1608490008    0.1450796108    0.5314880430
H       -1.0368484434   -1.1753243676   -2.5748637795
H       -0.5266453507    0.8015208443   -1.5432335808
H       -0.0296697195   -3.2447525735   -1.9913463354
H       -1.1016426268   -3.1227123244   -0.5770148702
H        0.5948713441   -2.5944965382   -0.4631646323
H        0.8627354185    2.0390241136    0.2341773070
H        1.9356461423    0.6211476153    0.2810782335
H        1.2252822477    1.2438934835    1.7838585977
H       -1.6543688353    1.7155810876    0.6788119300
H       -1.2647819962    0.9271368912    2.2254936685
H       -2.2673630499    0.0832229054    1.0276645716
H        0.0480363454   -0.8059930835    1.0316903806
18   

C       -0.5900324873   -1.2463418167   -1.5965821440
C       -0.4226517702   -0.0827362683   -0.9494858760
C       -0.2687673155   -2.6311484366   -1.0975558449
C        1.0396531043    1.0530855085    0.7066730030
C       -1.4137737327    0.7562440894    1.1628981414
C       -0.1706695892    0.1362481441    0.5230093098
H       -0.8425617106   -1.1729406631   -2.6490120702
H       -0.5715243767    0.8144498104   -1.5411897114
H        0.0079663920   -3.2760403364   -1.9368129661
H       -1.1417619541   -3.0603019612   -0.5971512871
H        0.5686038893   -2.6059092695   -0.3942193452
H        0.8653818501    2.0244524717    0.2329026736
H        1.9271168476    0.5977280760    0.2558414618
H        1.2369885849    1.2121639127    1.7715014827
H       -1.6482220445    1.7193525226    0.6981960452
H       -1.2515693562    0.9132000757    2.2339144768
H       -2.2727732871    0.0893598898    1.0379956875
H        0.0345875186   -0.8194517253    1.0151237739
18   

C       -0.4899752133   -1.2410624136   -1.6235686469
C       -0.4686914656   -0.0836955233   -0.9457924111
C       -0.2452080909   -2.6283210756   -1.0908728950
C        1.0446050588    1.0161205398    0.6848772088
C       -1.4109637115    0.7988751232    1.1721118378
C       -0.1955519680    0.1359829100    0.5220895366
H       -0.6660549738   -1.1678931395   -2.6914647063
H       -0.6605948721    0.8102917706   -1.5298928471
H        0.0513920532   -3.2949173114   -1.9060009133
H       -1.1576823552   -3.0193159629   -0.6312960152
H        0.5552585703   -2.6216056600   -0.3455271009
H        0.8942397256    1.9888512052    0.2056364384
H        1.9122913367    0.5307823294    0.2269248711
H        1.2592908023    1.1770638925    1.7460413127
H       -1.6207795813    1.7662547311    0.7046192445
H       -1.2314458559    0.9564207676    2.2403008838
H       -2.2916761764    0.1582981357    1.0613570449
H       -0.0146402884   -0.8220280349    1.0190473332
18   

C       -0.3891869077   -1.2267656651   -1.6375780312
C       -0.5150830585   -0.0925639795   -0.9315600263
C       -0.2229356395   -2.6270428803   -1.1070041521
C        1.0297130980    1.0018696538    0.6697518974
C       -1.4187250913    0.8057082836    1.2010082868
C       -0.2200658862    0.1310665964    0.5322191222
H       -0.5786412328   -1.1472167162   -2.7027289642
H       -0.7792683683    0.7929195596   -1.5001938262
H        0.8398630345   -2.8614275184   -0.9964599938
H       -0.6712525077   -3.3450355362   -1.8000539832
H       -0.7146737754   -2.7352919751   -0.1359295946
H        0.8789271882    1.9732909617    0.1879882857
H        1.8856221292    0.5073999608    0.1995020944
H        1.2637804117    1.1662816256    1.7262567951
H       -1.6289397587    1.7733605492    0.7342734581
H       -1.2191771224    0.9652349653    2.2653573003
H       -2.3062177515    0.1717747446    1.1078612472
H       -0.0338125089   -0.8264396670    1.0283650870
18   

C       -0.2734334290   -1.2126172925   -1.6336765573
C       -0.5320326296   -0.1064674966   -0.9158979747
C       -0.2165930404   -2.6327442386   -1.1294115171
C        1.0277170021    1.0045581049    0.6615520670
C       -1.4183363695    0.8261750497    1.2129552089
C       -0.2273031490    0.1382352143    0.5441752150
H       -0.3740340437   -1.1093790771   -2.7088527461
H       -0.8179747464    0.7717029797   -1.4853610113
H        0.8233869137   -2.9294978749   -0.9649291648
H       -0.6640612292   -3.3091449057   -1.8636612728
H       -0.7669174547   -2.7317652920   -0.1890636478
H        0.8778819452    1.9700752826    0.1677331178
H        1.8780384395    0.4999882975    0.1919106431
H        1.2698769303    1.1821422999    1.7140668796
H       -1.6287567566    1.7882781310    0.7350432117
H       -1.2099006998    0.9990795937    2.2735198240
H       -2.3086723665    0.1941543403    1.1352868526
H       -0.0421411950   -0.8151358757    1.0493220825
18   

C       -0.1737253589   -1.2243199836   -1.6025073864
C       -0.5539136276   -0.1512097665   -0.8825300680
C       -0.2174370671   -2.6679401607   -1.1614523643
C        1.0276343122    1.0035197136    0.6456306756
C       -1.4135693062    0.8516697600    1.2299632717
C       -0.2326901867    0.1402981050    0.5676674776
H       -0.1917458259   -1.0881317941   -2.6785889286
H       -0.8729220274    0.7116802850   -1.4577943761
H        0.7950446046   -3.0249776283   -0.9515943346
H       -0.6545136066   -3.2886991384   -1.9491906143
H       -0.8241930144   -2.7751222044   -0.2571921559
H        0.8764816961    1.9541748914    0.1241183773
H        1.8708051880    0.4812090191    0.1825828517
H        1.2816329541    1.2120993533    1.6896083077
H       -1.6270165979    1.7999257698    0.7264737766
H       -1.1917464468    1.0550755648    2.2823790919
H       -2.3065175557    0.2203896881    1.1818904513
H       -0.0467660339   -0.8008620435    1.0957043114
18   

C       -0.0890115614   -1.2532810312   -1.5547133740
C       -0.5755706038   -0.2180918761   -0.8336746799
C       -0.2148024113   -2.7250021474   -1.2272229640
C        1.0251287365    1.0041933223    0.6270909816
C       -1.4116377853    0.8894993418    1.2416320368
C       -0.2397579753    0.1443339528    0.6005408683
H       -0.0293555708   -1.0663438514   -2.6216724565
H       -0.9405425216    0.6200556655   -1.4181867336
H        0.7672267151   -3.1369177267   -0.9771981608
H       -0.6186093206   -3.2696992681   -2.0858167982
H       -0.8846980125   -2.8697715337   -0.3741342512
H        0.8731197363    1.9295654403    0.0621309774
H        1.8623589990    0.4570234944    0.1824012071
H        1.2887237967    1.2612267677    1.6577776594
H       -1.6279217945    1.8142602824    0.6973618266
H       -1.1780071051    1.1404789066    2.2811477271
H       -2.3066950476    0.2594402791    1.2323324228
H       -0.0536252162   -0.7741579934    1.1674133630
18   

C       -0.0294133087   -1.2896162290   -1.4729457694
C       -0.5939350248   -0.2949262756   -0.7376291920
C       -0.2105651799   -2.7858309377   -1.3134086143
C        1.0260291908    1.0086676240    0.6349818005
C       -1.4085594038    0.9575457891    1.2694678705
C       -0.2474527274    0.1617628789    0.6701420109
H        0.0940575620   -1.0283534117   -2.5186742422
H       -1.0260147127    0.5045381784   -1.3306022233
H        0.7417894425   -3.2501610315   -1.0415536877
H       -0.5647298577   -3.2268468552   -2.2499199640
H       -0.9417190362   -2.9973216390   -0.5272588277
H        0.8799777246    1.8957427405    0.0101519138
H        1.8563619920    0.4253940953    0.2246684520
H        1.2963145057    1.3313970967    1.6452419820
H       -1.6208104986    1.8475397369    0.6686256481
H       -1.1655289340    1.2726215420    2.2891840732
H       -2.3089891781    0.3362084700    1.3066558720
H       -0.0679965002   -0.7207079828    1.2935747669
18   

C        0.0143144971   -1.3486016048   -1.3833532669
C       -0.6022865280   -0.3901021141   -0.6262870756
C       -0.2004080878   -2.8519935571   -1.4136350292
C        1.0344528196    1.0019110502    0.6419995963
C       -1.3995979920    1.0317923362    1.2814277526
C       -0.2497384599    0.1769162750    0.7436842311
H        0.1952329151   -1.0034700849   -2.3959365243
H       -1.1374858682    0.3407817255   -1.2236168789
H        0.7253146341   -3.3668068057   -1.1409069458
H       -0.5022169313   -3.1732780302   -2.4149808582
H       -0.9826099537   -3.1359127591   -0.7032524080
H        0.8991597783    1.8369511075   -0.0530592772
H        1.8578678644    0.3774378137    0.2815270691
H        1.3081513601    1.4025285715    1.6230264973
H       -1.6026181724    1.8753250803    0.6140682853
H       -1.1500061920    1.4219626373    2.2731950958
H       -2.3074379144    0.4263982751    1.3685648445
H       -0.0820408068   -0.6558701129    1.4349417363
