30   

C        7.4088334641   -5.7624291309    4.4739046734
C        8.5334956400   -9.0865467775    2.0700350052
C        8.9066947099   -8.8658741008    0.7466516522
C        7.5741188551   -8.2669453962    2.6688040705
C        5.8683066873   -6.0698412643    7.1910348339
C        8.3203649252   -7.8222355288    0.0296000189
C        6.7029007566   -6.2892733010    8.2909424186
C        7.2582515107   -3.9499518395    8.3283564940
C        6.9674212514   -7.2082338297    1.9610165553
C        5.7283417677   -4.7848037437    6.6410935036
C        7.4076097094   -5.2306040360    8.8678130866
C        7.3571884791   -6.9883072303    0.6142508693
C        6.4243551211   -3.7104724706    7.2291239511
C        6.1084805353   -5.8316144251    3.8837436596
C        5.9329487567   -6.3757122745    2.6157510687
N        8.4761209212   -5.7349027238    4.9418286475
N        4.8861682065   -4.5591384277    5.5594986329
N        4.9854492644   -5.1580164877    4.4177005820
O        4.7966623889   -6.1701124576    1.9578735073
Cl       8.4531655577   -5.4996337307   10.2397406644
Cl       6.7175660353   -5.6660321434   -0.3453455466
Cl       6.2821573729   -2.0824527867    6.5952499507
H        8.9854198903   -9.8943324780    2.6350134727
H        9.6517653702   -9.4984745147    0.2765461886
H        7.2894834393   -8.4666460663    3.6958770507
H        5.3235522283   -6.8988937305    6.7544952967
H        8.6175693092   -7.6429948268   -0.9972264115
H        6.8087952011   -7.2863473249    8.7020870268
H        7.8023169138   -3.1227002423    8.7674631735
H        4.2292630211   -5.5735178320    2.4800314766
30   

C        7.4340434616   -5.6053752183    4.3806631357
C        8.5053112940   -9.0961589236    2.1393155968
C        8.8638447051   -8.9512092507    0.8021572453
C        7.5607216325   -8.2364848849    2.7039281186
C        6.0095441786   -6.1729161255    7.1490699902
C        8.2786194581   -7.9420680603    0.0374126537
C        6.8736819300   -6.3746988331    8.2289619292
C        7.2424465251   -4.0026862480    8.3692121096
C        6.9512150317   -7.2121074779    1.9484930343
C        5.7576849937   -4.8795148187    6.6629046801
C        7.4994369518   -5.2904660530    8.8477212180
C        7.3300511103   -7.0674022400    0.5856346161
C        6.3761279976   -3.7808473352    7.2915506279
C        6.1170346657   -5.8311998838    3.8741944966
C        5.9375271114   -6.3380708243    2.5859440417
N        8.5161032853   -5.4477372359    4.7840754726
N        4.8766058105   -4.6721612398    5.6089225766
N        4.9667102334   -5.2563169748    4.4598125038
O        4.8528744645   -6.0141993870    1.8923555684
Cl       8.5787307842   -5.5373077874   10.1973972118
Cl       6.7073410867   -5.7909854803   -0.4457641028
Cl       6.0964553914   -2.1420872211    6.7356447037
H        8.9579235969   -9.8759500201    2.7418130136
H        9.5979161478   -9.6147249408    0.3580723966
H        7.2902490978   -8.3783834071    3.7442964252
H        5.5239628940   -7.0218213510    6.6819764813
H        8.5670111282   -7.8204776784   -1.0003497789
H        7.0620775469   -7.3777220988    8.5933078889
H        7.7254157719   -3.1554233169    8.8405297474
H        4.3015057916   -5.4108651694    2.4237280138
30   

C        7.4455351276   -5.4645795599    4.3275162015
C        8.4948119616   -9.1151688142    2.2198944060
C        8.8412989617   -9.0392730387    0.8746002361
C        7.5639593111   -8.2200034411    2.7506192464
C        6.1451168950   -6.2593253707    7.1402860552
C        8.2579292909   -8.0632080785    0.0676830853
C        7.0369217732   -6.4222662227    8.2037536963
C        7.2271664342   -4.0334124571    8.4023034417
C        6.9533087765   -7.2274175262    1.9535084863
C        5.7862278582   -4.9772379899    6.6941734677
C        7.5867777674   -5.3097744280    8.8439799360
C        7.3225343028   -7.1527715405    0.5795139032
C        6.3303516328   -3.8507724447    7.3423050427
C        6.1432556347   -5.8478668214    3.8836756551
C        5.9606342602   -6.3144753670    2.5735965907
N        8.5174825611   -5.1753354226    4.6816373547
N        4.8687565558   -4.8125565583    5.6641661733
N        4.9660733338   -5.3848825317    4.5104018290
O        4.9437916399   -5.8721950354    1.8471299589
Cl       8.6977403155   -5.5085683052   10.1756749448
Cl       6.7131719216   -5.9257059064   -0.5186803802
Cl       5.9196547050   -2.2244049022    6.8332712196
H        8.9468202178   -9.8686828054    2.8553728072
H        9.5652728971   -9.7301439434    0.4563883308
H        7.3062600059   -8.3101199436    3.7998968406
H        5.7167718776   -7.1302864090    6.6581079062
H        8.5386067634   -7.9950023334   -0.9770907536
H        7.3042521861   -7.4171335323    8.5398626735
H        7.6516352639   -3.1641962793    8.8897617314
H        4.4066432043   -5.2613042316    2.3841315672
30   

C        7.4350055742   -5.3207886432    4.2675276226
C        8.4753052306   -9.1295664053    2.2647432437
C        8.8087517343   -9.1186076038    0.9148590656
C        7.5622348880   -8.1990422160    2.7640235575
C        6.2611752469   -6.3273322156    7.1127570426
C        8.2289906368   -8.1726832876    0.0713304728
C        7.1733977571   -6.4438410540    8.1646229484
C        7.1881115611   -4.0516300731    8.4088315385
C        6.9545334411   -7.2326719058    1.9314507232
C        5.8009178531   -5.0678128295    6.6978816269
C        7.6452476654   -5.3060770070    8.8223841340
C        7.3106720674   -7.2267742638    0.5491223794
C        6.2682307675   -3.9161220178    7.3615494476
C        6.1716082716   -5.8533577842    3.8700775049
C        5.9902594090   -6.2756751409    2.5350625248
N        8.4763126276   -4.9051445040    4.5850292876
N        4.8553046080   -4.9551859629    5.6868944260
N        4.9722977948   -5.5111466320    4.5276683178
O        5.0591349430   -5.7133615482    1.7798840878
Cl       8.7792050292   -5.4477132173   10.1418511343
Cl       6.7105714712   -6.0518936446   -0.6104735547
Cl       5.7324488626   -2.3155014324    6.8884890834
H        8.9245426290   -9.8597678607    2.9287625349
H        9.5197943654   -9.8365860938    0.5207933938
H        7.3190475680   -8.2418156325    3.8196343085
H        5.8918439429   -7.2182194301    6.6183698431
H        8.4996672062   -8.1561067553   -0.9782023876
H        7.5158790984   -7.4225423451    8.4792064669
H        7.5523307171   -3.1627326247    8.9094117142
H        4.5389365280   -5.0895817098    2.3183725550
30   

C        7.4209746260   -5.1898542775    4.2369442718
C        8.4158433907   -9.1581379469    2.2861098681
C        8.7272027388   -9.2017531767    0.9324077291
C        7.5374879116   -8.1862159822    2.7678463768
C        6.3859051588   -6.3919460583    7.1104903741
C        8.1573519628   -8.2708646534    0.0666574767
C        7.3191873018   -6.4619446816    8.1475627288
C        7.1794539010   -4.0774064914    8.4260023998
C        6.9424033364   -7.2281909857    1.9147096753
C        5.8350803548   -5.1610702394    6.7226445123
C        7.7240403712   -5.3044500177    8.8154364908
C        7.2727257011   -7.2836480430    0.5245597191
C        6.2361792893   -3.9893427455    7.3945210416
C        6.2083674831   -5.8515453847    3.8791496148
C        6.0295282900   -6.2153145929    2.5129355336
N        8.4201393719   -4.6629048910    4.5227513814
N        4.8626670673   -5.1022996249    5.7334443131
N        4.9987713961   -5.6339696253    4.5657170086
O        5.2064935763   -5.5226940108    1.7432073273
Cl       8.8824286341   -5.3890360698   10.1183650107
Cl       6.6806046617   -6.1483837467   -0.6785301556
Cl       5.5883312903   -2.4218443411    6.9518541126
H        8.8566191406   -9.8774476105    2.9674723858
H        9.4127400830   -9.9511936550    0.5519498074
H        7.3165530029   -8.1905780423    3.8290379787
H        6.0672959807   -7.2984572259    6.6092768794
H        8.4093694110   -8.2993520720   -0.9872815767
H        7.7290542407   -7.4202524128    8.4437008386
H        7.4918925980   -3.1731258274    8.9339976453
H        4.7173237466   -4.8780905054    2.2857989159
30   

C        7.4067228046   -5.0467413213    4.2213712224
C        8.3434776504   -9.2046865107    2.2957417950
C        8.6203940576   -9.3064950706    0.9383491471
C        7.5160766920   -8.1827304491    2.7634588850
C        6.5216089254   -6.4369034542    7.1129896056
C        8.0631508609   -8.3862624368    0.0540155621
C        7.4668594806   -6.4381218779    8.1412288438
C        7.1453510539   -4.0724406072    8.4310062707
C        6.9391479617   -7.2275001520    1.8929568047
C        5.8717074161   -5.2520661901    6.7375338838
C        7.7865494027   -5.2551791868    8.8106980272
C        7.2280092561   -7.3496903098    0.4958734989
C        6.1876567077   -4.0544497075    7.4091677902
C        6.2692662889   -5.8362606944    3.8795692098
C        6.0992000884   -6.1464907901    2.4838271896
N        8.3427026582   -4.4081269253    4.4927745457
N        4.8836769547   -5.2711055204    5.7632821843
N        5.0561132187   -5.7716593878    4.5872565384
O        5.4018599143   -5.3397827690    1.7026473708
Cl       8.9585544302   -5.2550249177   10.1040704234
Cl       6.6377026707   -6.2526560252   -0.7436452194
Cl       5.4157881295   -2.5407791027    6.9784687713
H        8.7731150100   -9.9168446660    2.9915864218
H        9.2681915840  -10.0940217666    0.5688475541
H        7.3271295545   -8.1461281922    3.8299983140
H        6.2681332695   -7.3633784917    6.6111227492
H        8.2855165957   -8.4633620901   -1.0041714783
H        7.9515039836   -7.3631832591    8.4299642749
H        7.3919082066   -3.1484253589    8.9397384073
H        4.9570349203   -4.6619570307    2.2424573559
30   

C        5.9372704288   -7.1171198855    5.0130479338
C        9.3864148329   -7.0889332198    1.5363957999
C        9.2334453802   -7.7542218319    0.3272673238
C        8.2618941169   -6.6808648061    2.2541983316
C        5.6969336112   -4.9870545996    7.6588145035
C        7.9531340296   -8.0000872344   -0.1618422897
C        6.2796975387   -5.4580627778    8.8378757053
C        8.4546116203   -5.2422541530    7.8362640021
C        6.9459477936   -6.9236821486    1.7929368461
C        6.4863713022   -4.6501975880    6.5503296859
C        7.6657562628   -5.5876886256    8.9373306771
C        6.8048826493   -7.5988803127    0.5371066247
C        7.8889913309   -4.7730039617    6.6443202529
C        6.0752307887   -6.0981059409    4.0302329080
C        5.8021410072   -6.4972657289    2.6513144460
N        5.8083201110   -7.9589312290    5.8082379658
N        5.8709526198   -4.1343942364    5.4198214315
N        5.8499290569   -4.7339128072    4.2773430118
O        4.5589541808   -6.6823349599    2.2491925103
Cl       8.4027145517   -6.1560040359   10.4139142828
Cl       5.2679783197   -7.9998799505   -0.2153991141
Cl       8.9455263078   -4.3059007024    5.3256689547
H       10.3787794083   -6.8898926652    1.9258528654
H       10.1034874837   -8.0809754153   -0.2317527583
H        8.4383020378   -6.1680575525    3.1913265358
H        4.6191320356   -4.8853042373    7.5957115418
H        7.8357031310   -8.5210677332   -1.1051263651
H        5.6550570234   -5.7222914831    9.6835801267
H        9.5313815032   -5.3278269835    7.9102336679
H        3.9386343509   -6.3913936989    2.9404505690
30   

C        6.0588896918   -7.0799740361    4.8954892470
C        9.4132274088   -7.1851408577    1.6059670667
C        9.2455405825   -7.9492113538    0.4581133853
C        8.2990658884   -6.6634424159    2.2642174974
C        5.6765669016   -5.1211971227    7.6971889144
C        7.9614233092   -8.1844761455   -0.0273113831
C        6.3630112985   -5.5787711637    8.8243471438
C        8.4510040901   -5.1104173075    7.7288925241
C        6.9812019072   -6.8863902136    1.8004590686
C        6.3693159009   -4.6646011819    6.5672052568
C        7.7581900273   -5.5754701785    8.8504377000
C        6.8240932923   -7.6717649523    0.6139991952
C        7.7812174935   -4.6520422532    6.5873553595
C        6.0720869798   -5.9986020590    3.9689482899
C        5.8487993106   -6.3170070767    2.5849664348
N        6.0430230612   -7.9709390946    5.6463108716
N        5.6412244673   -4.1751802613    5.4921124922
N        5.6611029200   -4.6988708748    4.3125614265
O        4.6222717858   -6.3242527587    2.0889644088
Cl       8.6228093344   -6.1281867932   10.2623616175
Cl       5.2760008476   -8.0937004722   -0.1025270074
Cl       8.7196472635   -4.0330446925    5.2415587010
H       10.4086267865   -6.9957265976    1.9923868473
H       10.1069573307   -8.3627014827   -0.0549686684
H        8.4802549267   -6.0707713775    3.1527785834
H        4.5921199099   -5.1253792218    7.6908555422
H        7.8320044148   -8.7870448924   -0.9190314742
H        5.8117793896   -5.9370541426    9.6863456953
H        9.5334056195   -5.0932456835    7.7471423243
H        4.0037485308   -5.9421662466    2.7364434300
30   

C        6.2060101107   -7.0313569893    4.8434914631
C        9.4003314747   -7.2575274929    1.6219272647
C        9.2017753072   -8.0684055187    0.5109215088
C        8.3066091276   -6.6715826471    2.2604693795
C        5.6400942136   -5.1694170584    7.7236981882
C        7.9074375042   -8.2891570336    0.0446688005
C        6.3868374551   -5.5960140986    8.8241912134
C        8.4078404192   -4.9847294742    7.6752282035
C        6.9814880204   -6.8752715257    1.8110791366
C        6.2680278933   -4.6573516687    6.5797774289
C        7.7791078762   -5.5061919659    8.8097009921
C        6.7911289827   -7.7129449938    0.6685309385
C        7.6772934468   -4.5551718833    6.5596000147
C        6.0559800861   -5.9385720667    3.9407602165
C        5.8717650633   -6.2238300139    2.5594249026
N        6.3318810420   -7.9311344626    5.5732206283
N        5.4733063683   -4.2131250411    5.5314321156
N        5.5129163940   -4.7018744641    4.3367401138
O        4.6772973089   -6.0935130708    2.0034830718
Cl       8.7179358316   -6.0233076794   10.1874131742
Cl       5.2206397117   -8.1285650951   -0.0001506935
Cl       8.5372589279   -3.8666154100    5.1948104823
H       10.4035724741   -7.0805594090    1.9936617120
H       10.0470947989   -8.5303350833    0.0125965758
H        8.5056934714   -6.0404734013    3.1188801695
H        4.5584057510   -5.2431070344    7.7484459510
H        7.7533175186   -8.9302584174   -0.8156767966
H        5.8848338335   -5.9988902517    9.6965225795
H        9.4872869379   -4.9018147118    7.6623711714
H        4.0728447533   -5.6571548462    2.6300672045
30   

C        6.3706007104   -6.9658032570    4.8205047074
C        9.3982230643   -7.2982813974    1.6085683168
C        9.1638554230   -8.1613066850    0.5437279708
C        8.3263481079   -6.6677112452    2.2422676657
C        5.5728570595   -5.2003303819    7.7489124282
C        7.8558260189   -8.3917291189    0.1205429791
C        6.3495980065   -5.5911580219    8.8417864884
C        8.3256866531   -4.8633875635    7.6828687946
C        6.9910049835   -6.8786356068    1.8315706389
C        6.1627322379   -4.6487774428    6.6031969694
C        7.7346915589   -5.4259907072    8.8180386178
C        6.7624396195   -7.7714074905    0.7421965522
C        7.5646870928   -4.4670290985    6.5749024562
C        6.0492721750   -5.8971223467    3.9316857094
C        5.9034578389   -6.1698924152    2.5549107317
N        6.6419417192   -7.8450756748    5.5356199948
N        5.3334114556   -4.2529349682    5.5614025910
N        5.3983195838   -4.7225236447    4.3593466545
O        4.7534202035   -5.9223863732    1.9451245803
Cl       8.7102811496   -5.9024945797   10.1849323096
Cl       5.1655595319   -8.2023404795    0.1516639672
Cl       8.3775014087   -3.7281347468    5.2071986996
H       10.4120359972   -7.1146565858    1.9468290887
H        9.9920454181   -8.6566748243    0.0487736536
H        8.5461619104   -5.9936192672    3.0626778471
H        4.4971538531   -5.3342269868    7.7804787889
H        7.6731706155   -9.0744217070   -0.7013368330
H        5.8766606844   -6.0261116478    9.7149502453
H        9.3991680225   -4.7236787376    7.6627881857
H        4.1598526046   -5.4493318623    2.5557358741
30   

C        6.5039044237   -6.9209392499    4.8000522386
C        9.4015751452   -7.3584755336    1.5904677885
C        9.1320952295   -8.2462481324    0.5536311750
C        8.3527115857   -6.6905493913    2.2249981678
C        5.5180733971   -5.2754940302    7.7663907637
C        7.8122066810   -8.4651584913    0.1602861792
C        6.3252805334   -5.6235934797    8.8514929411
C        8.2425490422   -4.7591095616    7.6878317355
C        7.0084940362   -6.8897269529    1.8414461444
C        6.0631059138   -4.6781143843    6.6216213263
C        7.6966183761   -5.3694063649    8.8209947225
C        6.7430843364   -7.8069971355    0.7847754011
C        7.4502317767   -4.4027930256    6.5878882410
C        6.0368460989   -5.8959649625    3.9230356869
C        5.9411662511   -6.1374189606    2.5459636769
N        6.8978041352   -7.7638184793    5.5020279595
N        5.2011550827   -4.3366591727    5.5864825999
N        5.2906364241   -4.7879914496    4.3783317355
O        4.8602673212   -5.7600487129    1.8765186714
Cl       8.7098799611   -5.7962899260   10.1769264113
Cl       5.1224122612   -8.2175863466    0.2487150470
Cl       8.2055915945   -3.6031588759    5.2212044755
H       10.4245219068   -7.1839691044    1.9052130485
H        9.9423362374   -8.7694582988    0.0576256678
H        8.5942934684   -5.9954145428    3.0217172696
H        4.4536740615   -5.4798787611    7.8026415758
H        7.6015679170   -9.1667693940   -0.6386109167
H        5.8869655630   -6.0956614703    9.7234245529
H        9.3049172330   -4.5515673187    7.6624890145
H        4.2703308671   -5.2649554289    2.4734606864
30   

C        6.6417824224   -6.8402206224    4.8031461460
C        9.4093239092   -7.3895918698    1.5793690065
C        9.0993782525   -8.2971409641    0.5704337746
C        8.3877724374   -6.6858779805    2.2202374740
C        5.4651771754   -5.3504089426    7.8063501814
C        7.7666545053   -8.4995996282    0.2110661922
C        6.2972095287   -5.6519451850    8.8864921320
C        8.1438260576   -4.6327036602    7.7339382939
C        7.0330587795   -6.8711097453    1.8706881353
C        5.9626258750   -4.7000628494    6.6690887592
C        7.6462096658   -5.2978534993    8.8585272656
C        6.7261082487   -7.8047987571    0.8437496325
C        7.3253005747   -4.3197699159    6.6396507754
C        6.0321899392   -5.8753067708    3.9442173457
C        5.9876343418   -6.0835288238    2.5655867613
N        7.1538328619   -7.6326239140    5.4876532303
N        5.0750441858   -4.4155064241    5.6380739626
N        5.1924891907   -4.8456765957    4.4241660619
O        4.9867036294   -5.5830024667    1.8513186224
Cl       8.6904989810   -5.6702277067   10.2070358247
Cl       5.0813756794   -8.1823863152    0.3615327647
Cl       8.0175425518   -3.4484183538    5.2833458598
H       10.4422168053   -7.2271864610    1.8669457977
H        9.8883893951   -8.8474841354    0.0695957551
H        8.6566900403   -5.9743232007    2.9934901447
H        4.4187991680   -5.6331518236    7.8400601343
H        7.5240848904   -9.2148362749   -0.5663576251
H        5.8958606914   -6.1663260327    9.7522299101
H        9.1884341328   -4.3486742144    7.7105578131
H        4.3973560586   -5.0765772983    2.4396608801
30   

C        6.7487598552   -6.7880782302    4.8092849220
C        9.3916572429   -7.4596582721    1.5482621334
C        9.0390520387   -8.3823598815    0.5666194079
C        8.3997704715   -6.7243758158    2.2006788962
C        5.4146334563   -5.4579111053    7.8334465671
C        7.6936644169   -8.5675108358    0.2452778131
C        6.2775613355   -5.6929082461    8.9057467407
C        8.0192907719   -4.5069500275    7.7494988395
C        7.0343130100   -6.8956266616    1.8902662754
C        5.8446667208   -4.7591288735    6.6977120303
C        7.5904512844   -5.2228171392    8.8713469048
C        6.6840769620   -7.8401349313    0.8910374770
C        7.1678187262   -4.2575534057    6.6636896607
C        6.0056774042   -5.9100666458    3.9611116813
C        6.0118548789   -6.0782403188    2.5810984261
N        7.3704716675   -7.5085644331    5.4825766506
N        4.9283413332   -4.5534947672    5.6726384905
N        5.0720187193   -4.9715486104    4.4567167387
O        5.1015829660   -5.4622295959    1.8342575484
Cl       8.6740296144   -5.5160739607   10.2084194312
Cl       5.0170657339   -8.1794606657    0.4622075742
Cl       7.7705515077   -3.3185517365    5.3098260529
H       10.4344697726   -7.3094773382    1.8050663364
H        9.8050644542   -8.9564470781    0.0568179274
H        8.6990496079   -6.0000107404    2.9505210405
H        4.3974164255   -5.8317256539    7.8713600143
H        7.4175870927   -9.2919636851   -0.5121380489
H        5.9289096016   -6.2467765425    9.7699057060
H        9.0354190867   -4.1338476039    7.7211377603
H        4.5073607200   -4.9517395738    2.4143946908
30   

C        6.8955024577   -6.6818074657    4.7914499320
C        9.3838433931   -7.5268199541    1.4658548698
C        8.9742882767   -8.4732541173    0.5291705525
C        8.4331140422   -6.7507304776    2.1326079260
C        5.3678711135   -5.5934683833    7.8165488341
C        7.6135329410   -8.6400099857    0.2658442241
C        6.2388506365   -5.7794879412    8.8919445910
C        7.8714689795   -4.3980287773    7.7947085312
C        7.0541980876   -6.9070264390    1.8819523797
C        5.7408806691   -4.8222090053    6.7082298857
C        7.5019970654   -5.1874307052    8.8881229621
C        6.6463164938   -7.8707137162    0.9273962144
C        7.0097043802   -4.1951401096    6.7070582068
C        6.0229157525   -5.9186130978    3.9547775861
C        6.0666587510   -6.0516126296    2.5735291312
N        7.6233033943   -7.3090490051    5.4518643087
N        4.8222269838   -4.6759154875    5.6752685226
N        5.0056617913   -5.0749966993    4.4576455988
O        5.2483088676   -5.3344237512    1.8103714617
Cl       8.5968388588   -5.4228544493   10.2275245931
Cl       4.9546171325   -8.1686648662    0.5739557076
Cl       7.5325031777   -3.1645886196    5.3872298591
H       10.4387925147   -7.3894149852    1.6760745798
H        9.7083453236   -9.0783822414    0.0083724913
H        8.7742696165   -6.0076754056    2.8453165543
H        4.3903796329   -6.0626366434    7.8295714618
H        7.2929779782   -9.3799386643   -0.4583295413
H        5.9359863505   -6.3909949301    9.7341636129
H        8.8488397185   -3.9318301250    7.7896005049
H        4.6527785274   -4.8168285971    2.3829436989
