33

C     -1.06730   -0.47254    0.69112
C      1.59993    1.30933   -0.15665
C      1.84866   -0.13400   -0.61270
C      0.12877    1.68944    0.05944
C      1.34526   -1.20210    0.36801
C     -0.55434    0.88234    1.17500
C     -1.63890    0.81248    6.47463
C     -1.98823    1.58117    5.19663
C     -0.74366    1.96923    4.38597
C     -1.04823    2.77929    3.12376
N     -0.10616   -1.39037    0.36983
O     -2.26504   -0.72592    0.57960
O     -2.39426    2.88435    0.80711
S     -2.02695    1.84663    1.85447
H      2.15568    1.48827    0.77468
H      2.02531    1.99123   -0.90206
H      1.38204   -0.30804   -1.58984
H      2.92814   -0.27803   -0.74432
H      0.06345    2.75377    0.30465
H     -0.44531    1.57144   -0.86439
H      1.77741   -2.17135    0.10668
H      1.69471   -0.97233    1.38343
H      0.13455    0.73490    2.01380
H     -0.99234    1.40615    7.13140
H     -2.54007    0.55217    7.03908
H     -1.11106   -0.12003    6.24315
H     -2.65987    0.97742    4.57615
H     -2.54419    2.49211    5.45259
H     -0.07328    2.56699    5.01697
H     -0.17803    1.06248    4.13194
H     -1.69297    3.63538    3.34576
H     -0.14445    3.16251    2.63815
H     -0.48137   -2.25347   -0.00669
