16   
Generated by ForceBalance from scan.xyz: Frame 1 of 24
C        4.7560530708    1.2359407899    0.9522448938
C        3.3691371409    0.8482275449    1.0259714104
C        5.3151279204    0.5349928987   -0.0722330362
C        3.2011742073   -0.0705929897    0.0282723555
C        0.9014222267   -0.9135992721    0.1888378867
C        0.0188672185   -2.0486775923   -0.2979131464
N        2.1282848581   -0.8232172322   -0.4443227801
O        0.5801877789   -0.1659784563    1.1047382320
O        4.3628922290   -0.2791934095   -0.6584526815
H        5.2639128844    1.9495502145    1.5877980915
H        2.6033237331    1.1907085973    1.7035834267
H        6.3020752840    0.4818992526   -0.5065455655
H       -1.0241863799   -1.7307315509   -0.2559445419
H        0.1401367166   -2.8983742754    0.3821974374
H        0.2572526568   -2.3805251028   -1.3128870839
H        2.3610941203   -1.5015581052   -1.1591491055
16   
Generated by ForceBalance from scan.xyz: Frame 2 of 24
C        4.7565415911    1.1576663410    1.0121920435
C        3.3425385934    0.8736351424    1.0089170199
C        5.3121779068    0.4426417965   -0.0042480160
C        3.1577370731   -0.0091278482   -0.0173325947
C        0.8518041252   -0.8248178551    0.1215225611
C        0.0790862170   -2.0801092244   -0.2390788930
N        2.0539185613   -0.6710226038   -0.5586629012
O        0.4988425476   -0.0532246438    1.0030539875
O        4.3321233752   -0.2849383190   -0.6561250171
H        5.2835797741    1.8165839627    1.6897902060
H        2.5710015490    1.2613382749    1.6553402012
H        6.3123018994    0.3269646197   -0.3939313552
H       -0.9812053275   -1.9223604124   -0.0377101108
H        0.4345648144   -2.8946589660    0.4013861415
H        0.2117876793   -2.3821214287   -1.2828312909
H        2.3032320655   -1.3918989146   -1.2265110727
16   
Generated by ForceBalance from scan.xyz: Frame 3 of 24
C        4.7455749005    1.0631807081    1.0180970873
C        3.3155157042    0.8821323280    0.9612509254
C        5.2822230437    0.3385880878   -0.0015887799
C        3.1028866282    0.0412575229   -0.0936567988
C        0.7966123188   -0.7528343364    0.0457394934
C        0.1603414353   -2.1110666663   -0.1814214975
N        1.9678797787   -0.5260246291   -0.6842711797
O        0.4042612607    0.0340298753    0.8933890182
O        4.2742708827   -0.3008827078   -0.7036338296
H        5.2953148721    1.6650123237    1.7299312554
H        2.5523549020    1.3111845204    1.5919678475
H        6.2834610491    0.1638405283   -0.3654509697
H       -0.8826591819   -2.0857689047    0.1358329201
H        0.6988044175   -2.8374956260    0.4373413321
H        0.2188616857   -2.4437194254   -1.2230542134
H        2.2155325086   -1.2564102082   -1.3441436484
16   
Generated by ForceBalance from scan.xyz: Frame 4 of 24
C        4.7197456071    0.9747476218    1.0486340134
C        3.2831729722    0.8915899540    0.9427771341
C        5.2395815429    0.2513032257    0.0196452252
C        3.0487111750    0.1025677585   -0.1465012925
C        0.7469299223   -0.6775547065   -0.0215222583
C        0.2786633170   -2.1159993632   -0.1247993204
N        1.8913201384   -0.3667682236   -0.7853276987
O        0.2857823458    0.1163813420    0.7795321204
O        4.2132506415   -0.2967688011   -0.7332341865
H        5.2851291620    1.5153197288    1.7964798776
H        2.5311431860    1.3524743814    1.5651978097
H        6.2378532256    0.0256976553   -0.3237231143
H       -0.7303274437   -2.2088489131    0.2780358718
H        0.9622707923   -2.7234545323    0.4790577150
H        0.3032000268   -2.5023431405   -1.1493610297
H        2.1373570845   -1.0869377444   -1.4587582166
16   
Generated by ForceBalance from scan.xyz: Frame 5 of 24
C        4.6809242616    0.8719244084    1.1232584904
C        3.2469339576    0.8950467922    0.9643542310
C        5.1850906897    0.1372473785    0.0944659369
C        2.9954869810    0.1516780511   -0.1527938208
C        0.7053677098   -0.6223893907   -0.0533104552
C        0.4306001357   -2.1125329628   -0.0474299387
N        1.8235119003   -0.2124207126   -0.8386521347
O        0.1413791766    0.1623964942    0.6828186524
O        4.1497603925   -0.3209789611   -0.7052756965
H        5.2558386436    1.3545713881    1.9027858852
H        2.5088485197    1.3966788487    1.5727360948
H        6.1771863528   -0.1451525949   -0.2239104947
H       -0.5309338200   -2.3161924464    0.4246486936
H        1.2291235614   -2.5840045604    0.5369648979
H        0.4510963939   -2.5521511319   -1.0504699506
H        2.0674394675   -0.9055404356   -1.5424944918
16   
Generated by ForceBalance from scan.xyz: Frame 6 of 24
C        4.5847331442    0.6478396558    1.1521312765
C        3.1667328651    0.5180588431    0.9399673682
C        5.1860854842    0.1879130176    0.0180767339
C        3.0197264574   -0.0241438647   -0.3077907167
C        0.7050539978   -0.6173088523   -0.2739816881
C        0.5325491116   -2.0041733038    0.2970393429
N        1.9029711766   -0.4479697304   -1.0527527197
O       -0.1728275942    0.2255709410   -0.2823443939
O        4.2427774110   -0.2437952783   -0.8826679557
H        5.0831942346    1.0469771390    2.0256511113
H        2.3663259663    0.8191444691    1.6022307433
H        6.2132347632    0.1125264886   -0.3078842646
H       -0.2228807691   -2.0054460327    1.0838854038
H        1.4757655896   -2.4153835211    0.6652214110
H        0.1940185507   -2.6422508770   -0.5268031331
H        1.6904189370    0.2465453847   -1.7734714309
16   
Generated by ForceBalance from scan.xyz: Frame 7 of 24
C        4.5793959232    0.5848798961    1.1776871230
C        3.1591942572    0.5321331150    0.9527846437
C        5.1653923828    0.1301587403    0.0327859971
C        2.9930881476    0.0357618663   -0.3111814447
C        0.6630461178   -0.5753817458   -0.3649429757
C        0.6315803644   -1.9236074656    0.3204931978
N        1.8626246901   -0.2956137453   -1.0773881845
O       -0.3221616241    0.1304839567   -0.5005960709
O        4.2095757453   -0.2259291885   -0.8850458284
H        5.0908225168    0.9314730349    2.0659749808
H        2.3689307448    0.8442719574    1.6224596454
H        6.1903066986    0.0127200710   -0.2879859817
H       -0.0964594842   -1.9196271444    1.1330170117
H        1.6128257029   -2.2319936916    0.6870654671
H        0.3088487002   -2.6485173434   -0.4347092745
H        1.6595999596    0.4295782579   -1.7681791529
16   
Generated by ForceBalance from scan.xyz: Frame 8 of 24
C        4.5360990103    0.5166822156    1.1907415227
C        3.1155288202    0.5166716691    0.9676016791
C        5.1031976808    0.0527177187    0.0392617160
C        2.9280030173    0.0396188099   -0.3005845748
C        0.6025888309   -0.6638457730   -0.4367934116
C        0.7081040365   -1.9549665052    0.3484034692
N        1.7875293407   -0.2330347021   -1.0691380240
O       -0.4641558314   -0.1227301483   -0.6842746352
O        4.1356076647   -0.2577781825   -0.8798570362
H        5.0611156207    0.8342815454    2.0819282650
H        2.3371995826    0.8430204273    1.6445773072
H        6.1231573547   -0.0999831151   -0.2827861721
H       -0.0046346433   -1.9475984775    1.1747899107
H        1.7151090605   -2.1527641364    0.7187185333
H        0.4265273461   -2.7611160541   -0.3373533856
H        1.5668965949    0.5039733261   -1.7395335001
16   
Generated by ForceBalance from scan.xyz: Frame 9 of 24
C        4.5713938250    0.4669879814    1.2182485030
C        3.1554905368    0.5581448263    0.9895181796
C        5.1117908697   -0.0278777005    0.0660197627
C        2.9409026010    0.0984698383   -0.2805498912
C        0.6169696286   -0.6531417183   -0.5302961829
C        0.7803545197   -1.8920052586    0.3280370446
N        1.7894276733   -0.0895032674   -1.0514600143
O       -0.4768033204   -0.2364415965   -0.8846407593
O        4.1320739372   -0.2710991234   -0.8576996491
H        5.1121897898    0.7453570231    2.1130981450
H        2.3956950728    0.9249219348    1.6668941407
H        6.1215202610   -0.2462476326   -0.2507611579
H        0.1131728624   -1.8299510319    1.1904165763
H        1.8043762673   -2.0624068302    0.6612318980
H        0.4574723047   -2.7428078898   -0.2801640577
H        1.5707084103    0.6595593600   -1.7066642529
16   
Generated by ForceBalance from scan.xyz: Frame 10 of 24
C        4.9301466098    0.6998107057    1.2846859028
C        3.5661781654    1.1032292415    1.0778059750
C        5.2086156501   -0.2152588264    0.3099258824
C        3.1204760219    0.4113155023   -0.0139334209
C        0.8425985198   -0.4672211315   -0.3884483513
C        1.2304700628   -1.8019988285    0.2128891612
N        1.9045312327    0.3891892890   -0.7031841192
O       -0.3030159314   -0.1620599429   -0.6865889644
O        4.1222981700   -0.3987820086   -0.4990106830
H        5.6063077128    1.0389455604    2.0583355064
H        2.9861382067    1.8043641492    1.6632464654
H        6.0830480718   -0.8012538149    0.0652479421
H        0.3230336284   -2.3377466193    0.4900386299
H        1.8739421456   -1.6801038909    1.0892013625
H        1.7907195848   -2.3822918555   -0.5263617678
H        1.5825063638    1.2711766913   -1.0919860506
16   
Generated by ForceBalance from scan.xyz: Frame 11 of 24
C        4.9524355186    0.6779174996    1.2665495041
C        3.5894801200    1.1065196958    1.1118138842
C        5.1812470919   -0.2267982982    0.2694938491
C        3.0941125507    0.4400618099    0.0258756493
C        0.8410924926   -0.4844607550   -0.4403081894
C        1.2433023246   -1.7743578765    0.2452326130
N        1.8569409798    0.4540124502   -0.6161288669
O       -0.2820055249   -0.2654385170   -0.8728987450
O        4.0660127240   -0.3795152402   -0.5058089564
H        5.6598060893    0.9928698703    2.0222985951
H        3.0409399938    1.8072611657    1.7271468213
H        6.0361603754   -0.8249179595   -0.0121407121
H        0.3473092899   -2.3721700806    0.4097051532
H        1.7438494625   -1.5815375254    1.1988797623
H        1.9442715523   -2.3278672711   -0.3865473940
H        1.5515077467    1.3124198524   -1.0640863416
16   
Generated by ForceBalance from scan.xyz: Frame 12 of 24
C        4.9437285091    0.6369938927    1.2548127552
C        3.5730891164    1.0541507259    1.1460816245
C        5.1604653427   -0.2260650970    0.2185855876
C        3.0596170949    0.4239150585    0.0475675089
C        0.8553751862   -0.5704699619   -0.5052135635
C        1.2435393641   -1.8052958288    0.2828469533
N        1.8051512735    0.4462319502   -0.5552002315
O       -0.2127385204   -0.4458568695   -1.0888456497
O        4.0301654644   -0.3652722984   -0.5360905017
H        5.6646384490    0.9319176759    2.0058140965
H        3.0302814324    1.7255156808    1.7980030024
H        6.0170919744   -0.7999539975   -0.1054595309
H        0.3571110502   -2.4268900411    0.4068179106
H        1.6609505304   -1.5452011158    1.2597599621
H        2.0075282860   -2.3680566343   -0.2622307043
H        1.5378492491    1.2422367844   -1.1261404624
16   
Generated by ForceBalance from scan.xyz: Frame 13 of 24
C        4.9587195696    0.5961818892    1.2414226085
C        3.5853430830    1.0157859067    1.1939320526
C        5.1516426657   -0.1944692507    0.1444703588
C        3.0446935098    0.4570364798    0.0709528565
C        0.8815312835   -0.5656284369   -0.5443532884
C        1.2125120074   -1.7482489130    0.3437278940
N        1.7686643553    0.5099980962   -0.4865214232
O       -0.1084794488   -0.5107132313   -1.2602119005
O        4.0020694043   -0.2906220452   -0.5875216430
H        5.6981894086    0.8444394631    1.9912305817
H        3.0578160622    1.6435746120    1.8994756397
H        6.0028827464   -0.7380064106   -0.2405995360
H        0.3415441076   -2.4020173991    0.3840956217
H        1.4911579886   -1.4261120915    1.3507467031
H        2.0596889190   -2.3031813757   -0.0714670102
H        1.5614232695    1.2403241059   -1.1624159850
16   
Generated by ForceBalance from scan.xyz: Frame 14 of 24
C        4.9228275522    0.6201976613    1.2495695213
C        3.5315741753    0.9798698911    1.2722030619
C        5.0989441137   -0.1445296001    0.1318511119
C        2.9646493871    0.4153176997    0.1658529937
C        0.9019350786   -0.7524014114   -0.4713212372
C        1.2106960889   -1.8606620466    0.5151395693
N        1.6580819889    0.4192207770   -0.3286899061
O        0.0066033299   -0.8125835580   -1.3006200414
O        3.9209429824   -0.2807942810   -0.5480164315
H        5.6850801120    0.8899381068    1.9684835643
H        3.0104632986    1.5738799268    2.0108720126
H        5.9541966844   -0.6425995864   -0.3025925898
H        0.3855356235   -2.5725722945    0.5018426743
H        1.3553988622   -1.4631800566    1.5230280015
H        2.1315145153   -2.3782065614    0.2273751170
H        1.4494200258    1.0930364828   -1.0625913742
16   
Generated by ForceBalance from scan.xyz: Frame 15 of 24
C        5.0440157316    0.5472224120    1.1475734115
C        3.6554960885    0.9060369518    1.2482391068
C        5.1750539853   -0.1365371912   -0.0271752022
C        3.0455357532    0.4197770955    0.1281929854
C        0.9809952284   -0.7095941883   -0.5591005517
C        1.0862377279   -1.7874365495    0.4996811609
N        1.7192951787    0.4650360591   -0.3186066394
O        0.1910258272   -0.7611418173   -1.4887202818
O        3.9701302597   -0.2271266790   -0.6676511854
H        5.8343113651    0.7663773517    1.8532938761
H        3.1643017890    1.4480540401    2.0449397770
H        6.0113180659   -0.6021067930   -0.5292588478
H        0.8309410944   -2.7506678828    0.0568485273
H        0.3515130296   -1.5570239936    1.2784714386
H        2.0714375374   -1.8355690342    0.9677677349
H        1.5440571991    1.1416698547   -1.0606575286
16   
Generated by ForceBalance from scan.xyz: Frame 16 of 24
C        5.0789443982    0.5506806948    1.1117217650
C        3.6870817958    0.8717768580    1.2769940029
C        5.1818202753   -0.0846591705   -0.0924370194
C        3.0478110661    0.4156315070    0.1606741078
C        1.0528945021   -0.7684553345   -0.5732183115
C        0.9978279889   -1.7969545758    0.5350134678
N        1.7015819047    0.4480934044   -0.2375019614
O        0.4243879311   -0.8678653668   -1.6133138052
O        3.9561562086   -0.1781619153   -0.6925431899
H        5.8898679967    0.7618067547    1.7961698910
H        3.2135201131    1.3719919373    2.1108111002
H        6.0088140215   -0.5106744109   -0.6426129110
H        0.8468136104   -2.7899823684    0.1102442329
H        0.1336363222   -1.5480414415    1.1600783138
H        1.8874641843   -1.7847241311    1.1687046398
H        1.5372033357    1.1105627616   -0.9970073994
16   
Generated by ForceBalance from scan.xyz: Frame 17 of 24
C        4.2636951693    1.4702346634    0.1593133503
C        3.1044905214    0.7889294202    0.6715430970
C        5.0397851891    0.5153791066   -0.4296466699
C        3.2618685708   -0.5291610876    0.3405974840
C        1.0627529267   -1.4523941646    0.6831555952
C        0.3173781392   -1.0772779252   -0.5786648710
N        2.4584043359   -1.6695450264    0.5100708104
O        0.5063251739   -1.7687497169    1.7211901245
O        4.4350339081   -0.7132727464   -0.3430329418
H        4.4927686958    2.5248667551    0.2368737542
H        2.2805972496    1.2101054215    1.2321066961
H        6.0031022808    0.5302769050   -0.9184451152
H       -0.6119575922   -0.5619130058   -0.3316968750
H        0.0722571879   -2.0168530039   -1.0856910457
H        0.9207088709   -0.4734334525   -1.2596189788
H        2.7894768562   -2.2415397801    1.2895357994
16   
Generated by ForceBalance from scan.xyz: Frame 18 of 24
C        4.3037542756    1.4617562794    0.2192276486
C        3.1159041707    0.7786860140    0.6610948729
C        5.0859287514    0.5212720058   -0.3831211899
C        3.2663092601   -0.5264849761    0.2788034695
C        1.0558586553   -1.3628439381    0.6319086023
C        0.2161638461   -1.1506974185   -0.6047928319
N        2.4366592253   -1.6612846369    0.3602124878
O        0.5928997270   -1.4984693414    1.7493391341
O        4.4581574349   -0.7008866073   -0.3717713804
H        4.5457522413    2.5081233514    0.3509591612
H        2.2830366021    1.1877200702    1.2168597838
H        6.0664531816    0.5398989092   -0.8361188268
H       -0.7289053546   -0.6691525664   -0.3503548199
H        0.0128540533   -2.1440156711   -1.0199857253
H        0.7491937309   -0.5782062704   -1.3680091501
H        2.7620197243   -2.2673698514    1.1176753926
16   
Generated by ForceBalance from scan.xyz: Frame 19 of 24
C        4.4442422335    1.4497777548    0.4151311913
C        3.2851095643    0.8226978503    1.0027355076
C        5.0174459979    0.5340318762   -0.4126255752
C        3.2407573137   -0.4308644331    0.4637789356
C        0.9735361610   -1.2535269662    0.6394552960
C        0.2218613150   -1.6174687337   -0.6249619423
N        2.3738077670   -1.5272542048    0.6152890789
O        0.4789753380   -0.6181467987    1.5490931067
O        4.2781665568   -0.6384833937   -0.3972899252
H        4.8045539420    2.4530113502    0.6017756658
H        2.5926299285    1.2279507199    1.7257563664
H        5.8920128623    0.5228726551   -1.0453759235
H       -0.8529289756   -1.5376150830   -0.4598428271
H        0.4666079847   -2.6206290646   -0.9905398722
H        0.5251382100   -0.9008772167   -1.3969514172
H        2.6073994967   -2.2213711089   -0.0910904279
16   
Generated by ForceBalance from scan.xyz: Frame 20 of 24
C        4.5289336415    1.4466089900    0.4963114358
C        3.3142224803    0.8434640046    0.9887822902
C        5.1156174438    0.5430767018   -0.3354981175
C        3.2574608862   -0.3852517782    0.3964174394
C        0.9698205130   -1.1959235679    0.5624608786
C        0.1193996882   -1.7270621265   -0.5749119583
N        2.3519006330   -1.4556975573    0.4457383762
O        0.5357175007   -0.4588672523    1.4301499607
O        4.3373462623   -0.6011905548   -0.4082223940
H        4.9128173067    2.4278259435    0.7432884437
H        2.5928069594    1.2454822798    1.6839762547
H        6.0213766729    0.5258006073   -0.9225865232
H       -0.9322751032   -1.7240522153   -0.2867430507
H        0.4106697741   -2.7330074630   -0.8953354529
H        0.2583918479   -1.0503550187   -1.4256292704
H        2.5721671513   -2.1297148055   -0.2821719404
16   
Generated by ForceBalance from scan.xyz: Frame 21 of 24
C        4.5831016968    1.4500246106    0.5724856553
C        3.3194304181    0.8745716534    0.9637296593
C        5.1881633242    0.5597712995   -0.2606645097
C        3.2573157647   -0.3263392542    0.3163886893
C        0.9574508577   -1.1350942960    0.4755446994
C        0.0345959095   -1.8151310702   -0.5180015438
N        2.3202085400   -1.3643851132    0.2599021085
O        0.5636456900   -0.3420802962    1.3167774133
O        4.3781982927   -0.5509108868   -0.4282429009
H        4.9844649514    2.4057739420    0.8832487380
H        2.5696018282    1.2741445435    1.6288647826
H        6.1255970194    0.5348663513   -0.7954619833
H       -0.9719625527   -1.8751083142   -0.1028122224
H        0.3738944386   -2.8164258140   -0.8032560831
H        0.0061193870   -1.1964050131   -1.4218115917
H        2.5368292828   -2.0233764651   -0.4810685188
16   
Generated by ForceBalance from scan.xyz: Frame 22 of 24
C        4.6268393771    1.4665423626    0.6557424856
C        3.3208842314    0.9264841870    0.9436529908
C        5.2505028249    0.5876276318   -0.1759573057
C        3.2574789365   -0.2462265397    0.2455543420
C        0.9507689927   -1.0594700978    0.3846604811
C       -0.0016731465   -1.8902191751   -0.4553449179
N        2.2955702917   -1.2459736313    0.0879867731
O        0.5721599998   -0.2243721699    1.1948100578
O        4.4149809309   -0.4838288595   -0.4378832887
H        5.0414164354    2.3937062827    1.0293374735
H        2.5433243007    1.3298882074    1.5730375140
H        6.2174067682    0.5497432630   -0.6546448508
H       -0.9322178621   -2.0390814754    0.0938346711
H        0.4129200199   -2.8619511389   -0.7418505692
H       -0.2263815396   -1.3302058195   -1.3696329827
H        2.5201589214   -1.9101164261   -0.6443548136
16   
Generated by ForceBalance from scan.xyz: Frame 23 of 24
C        4.6770911627    1.4249669948    0.7298564974
C        3.3288261727    0.9459752523    0.9088898191
C        5.3114732970    0.5421342640   -0.0896647034
C        3.2558900137   -0.2014410572    0.1700084937
C        0.9365769735   -0.9975681154    0.2809802021
C       -0.0199025110   -1.9592081763   -0.4006574807
N        2.2624655607   -1.1439724626   -0.0861890583
O        0.5638672035   -0.1247709618    1.0557852214
O        4.4440961595   -0.4751549870   -0.4447677598
H        5.1105209825    2.3170551425    1.1627603311
H        2.5288724398    1.3717129605    1.4934782075
H        6.3058598627    0.4699276919   -0.5037835315
H       -0.8194970968   -2.2180002673    0.2953911470
H        0.4631226239   -2.8743668114   -0.7560401330
H       -0.4712095068   -1.4496807302   -1.2585309221
H        2.5054217441   -1.8489054588   -0.7712943585
16   
Generated by ForceBalance from scan.xyz: Frame 24 of 24
C        4.6594192174    1.3203940524    0.7810104451
C        3.2715878907    0.9351552390    0.8468067205
C        5.2977200662    0.3934553023    0.0148493363
C        3.1826364332   -0.2092080790    0.1045805467
C        0.8381566345   -0.9390386044    0.1624568574
C       -0.1054094443   -2.0181409413   -0.3377336680
N        2.1525299544   -1.0807733086   -0.2371849897
O        0.4638309961   -0.0102057923    0.8694467700
O        4.3956365323   -0.5633556640   -0.4134473236
H        5.1153819548    2.1824434253    1.2501194156
H        2.4555935117    1.4192419294    1.3592528054
H        6.3156445042    0.2527749727   -0.3161549095
H       -0.5548324905   -2.5165229303    0.5254591876
H        0.3749443681   -2.7689045552   -0.9714737148
H       -0.9132635675   -1.5419849684   -0.8996499494
H        2.4149192371   -1.8635779918   -0.8222817584
