22   
Generated by ForceBalance from scan.xyz: Frame 1 of 24
C        5.6667161990   -1.3215609564    0.0307733200
C        5.7324119731   -1.0911429129    1.4109086881
C        4.4717363971   -1.1004494906   -0.6436436367
C        4.5803181993   -0.6251695596    2.0425601315
C        0.2458652070   -1.7528125090   -3.2119737044
C        0.9570895833   -2.9157223273   -3.1720541315
C        3.3508592138   -0.6732697063    0.0991604301
C        1.6170940605   -1.1737696786   -1.5662193753
C        1.1698970237    0.4794930160    0.1725618415
N        3.4137797456   -0.4238196373    1.4146210341
N        0.6174174658   -0.7774787178   -2.3125840519
N        2.1112218950   -0.4227144141   -0.5115451240
S        2.1660218459   -2.8273197216   -1.9200530048
H        6.5449786609   -1.6480561591   -0.5202095718
H        6.6476809256   -1.2476932396    1.9731950018
H        4.4134815608   -1.2220081522   -1.7186809047
H        4.5855996874   -0.4031583818    3.1087954398
H       -0.5628550731   -1.5458052454   -3.9048187052
H        0.8746591211   -3.7868710204   -3.8082991593
H        1.7242823862    1.3186757247    0.5920230236
H        0.6536179723   -0.0395043754    0.9866326568
H        0.4487280834    0.8331657916   -0.5611444185
22   
Generated by ForceBalance from scan.xyz: Frame 2 of 24
C        5.6395811878   -1.3390436257    0.0376693801
C        5.7552013087   -1.0180103552    1.3970328311
C        4.4203188081   -1.1695777660   -0.6058899005
C        4.6236008138   -0.5186930458    2.0389640457
C        0.3788128266   -1.6561772057   -3.3171316785
C        0.9232469943   -2.8986729958   -3.1633238487
C        3.3245521582   -0.6949931101    0.1482880216
C        1.6042372131   -1.1968032559   -1.5259559378
C        1.1157295347    0.4007274326    0.2643328863
N        3.4334744329   -0.3618884337    1.4426687275
N        0.7665146731   -0.7032517850   -2.4009827999
N        2.0637921257   -0.4882994420   -0.4262254718
S        1.9637679887   -2.9208411411   -1.7694768272
H        6.4988843491   -1.6993105341   -0.5221992774
H        6.6916618368   -1.1333321631    1.9337242397
H        4.3228099394   -1.3691343445   -1.6662780040
H        4.6655739428   -0.2295278302    3.0882093008
H       -0.3023971912   -1.3732234486   -4.1125030349
H        0.8093474766   -3.7716127255   -3.7924905997
H        1.6301699660    1.3111329680    0.5748352012
H        0.7062512343   -0.0863639513    1.1548704025
H        0.3185264109    0.6465646355   -0.4341342390
22   
Generated by ForceBalance from scan.xyz: Frame 3 of 24
C        5.6071014625   -1.3623806595    0.0169229005
C        5.7732563305   -0.9484919652    1.3459882324
C        4.3636767286   -1.2422208085   -0.5896710118
C        4.6631652191   -0.4131102220    1.9959796383
C        0.5262530378   -1.5893543534   -3.4156135555
C        0.8832001067   -2.8859695621   -3.1715849102
C        3.2949378999   -0.7169028953    0.1712790053
C        1.5813717343   -1.2291161476   -1.4991582664
C        1.0617027696    0.3276889731    0.3243613282
N        3.4502656001   -0.2992468577    1.4366131169
N        0.9266749712   -0.6626234059   -2.4784103539
N        2.0138582484   -0.5566102024   -0.3643345809
S        1.7345791440   -2.9912394942   -1.6619226921
H        6.4459772908   -1.7597818336   -0.5488852343
H        6.7301229715   -1.0235372861    1.8529338981
H        4.2253255346   -1.5204008335   -1.6276914173
H        4.7428434793   -0.0560512904    3.0219578486
H       -0.0135715485   -1.2506444756   -4.2933581013
H        0.7279292929   -3.7581132774   -3.7932751046
H        1.5372032774    1.2842923221    0.5490917668
H        0.7282108680   -0.1217567960    1.2646643005
H        0.2142777376    0.4884577665   -0.3398945888
22   
Generated by ForceBalance from scan.xyz: Frame 4 of 24
C        5.5593470218   -1.3973838818    0.0294036883
C        5.7657524736   -0.8691229613    1.3115489646
C        4.2936638968   -1.3472393868   -0.5397901845
C        4.6700342805   -0.2968259946    1.9540454038
C        0.6795926518   -1.5599905598   -3.4845646730
C        0.8707057085   -2.8862014687   -3.2090050691
C        3.2444635106   -0.7702985003    0.2116907129
C        1.5464781363   -1.3030025127   -1.4614143200
C        0.9958749395    0.2409184022    0.3651639970
N        3.4370064565   -0.2446758023    1.4305344660
N        1.0681994598   -0.6754181755   -2.5025324165
N        1.9391629410   -0.6848439292   -0.2793350278
S        1.5322052536   -3.0690532892   -1.6165545116
H        6.3839108084   -1.8327073138   -0.5295810213
H        6.7410715907   -0.8876768488    1.7875643987
H        4.1232622670   -1.7210172529   -1.5423675370
H        4.7790224430    0.1461273760    2.9432212323
H        0.2752675882   -1.1723529395   -4.4133909657
H        0.6861686232   -3.7403571982   -3.8476496077
H        1.4069367702    1.2537172424    0.3916893434
H        0.7945662718   -0.0783412628    1.3906134325
H        0.0748480755    0.2401208002   -0.2161757791
22   
Generated by ForceBalance from scan.xyz: Frame 5 of 24
C        5.5649324639   -1.4847709862   -0.0519780034
C        5.8094638644   -0.8826765654    1.1901681595
C        4.2800980211   -1.4782672421   -0.5792376893
C        4.7295880294   -0.2864442351    1.8375691592
C        0.9062359117   -1.4950109316   -3.6196708585
C        0.9078541720   -2.8391215064   -3.3593417200
C        3.2514696130   -0.8661596971    0.1727944677
C        1.5712018678   -1.3745189215   -1.5107949321
C        0.9893974637    0.1168978399    0.3393537593
N        3.4796944296   -0.2719439862    1.3527152680
N        1.2857299743   -0.6780112275   -2.5774986308
N        1.9255239648   -0.8381269794   -0.2727546060
S        1.3698895753   -3.1193630939   -1.7135059611
H        6.3740986868   -1.9467365910   -0.6121442329
H        6.8006254190   -0.8652261442    1.6322979454
H        4.0787928354   -1.9167304824   -1.5494652558
H        4.8665159226    0.2106666814    2.7971398842
H        0.6487768970   -1.0488885528   -4.5741856994
H        0.6815954015   -3.6549925607   -4.0337576343
H        1.3038691776    1.1503180145    0.1602787543
H        0.9426804481   -0.0540096832    1.4155475172
H        0.0069389075   -0.0425501701   -0.1054602400
22   
Generated by ForceBalance from scan.xyz: Frame 6 of 24
C        5.5032588901   -1.3611412476   -0.0652732897
C        5.7261323884   -0.9018670688    1.2415610889
C        4.2449219431   -1.2270136321   -0.6354760913
C        4.6516440251   -0.3235214449    1.9120843559
C        1.1828500278   -1.7165460407   -3.6236932758
C        0.6460622931   -2.8468066488   -3.0669967222
C        3.2225170746   -0.6318025817    0.1385747713
C        1.5327716952   -1.1779296660   -1.5041493845
C        0.8807912982    0.0761760716    0.4967352695
N        3.4230372791   -0.1920935053    1.3881538654
N        1.6742221679   -0.7824641208   -2.7387624005
N        1.9334906134   -0.4563388128   -0.3754637130
S        0.7672875520   -2.7695787638   -1.3432511808
H        6.3090255371   -1.8143550321   -0.6373969245
H        6.6970417359   -0.9871919810    1.7193941454
H        4.0524984642   -1.5507332115   -1.6517606733
H        4.7713548323    0.0530116977    2.9271819621
H        1.2324756225   -1.5131212471   -4.6878446320
H        0.1898675752   -3.6906246517   -3.5688971614
H        1.2254519620    1.0032661610    0.9556852851
H        0.6169852711   -0.6248056605    1.2985325810
H        0.0024198629    0.2778512420   -0.1183670998
22   
Generated by ForceBalance from scan.xyz: Frame 7 of 24
C        5.5247956373   -1.2506197101   -0.0836539406
C        5.7219461115   -0.8291789985    1.2395183280
C        4.2680400352   -1.1379250966   -0.6630786304
C        4.6240117251   -0.3081917111    1.9182119716
C        1.3284039876   -1.8788927341   -3.6034445560
C        0.5069995782   -2.8193281594   -3.0445810914
C        3.2199594987   -0.6074886395    0.1215421407
C        1.5177472807   -1.1994833045   -1.5028253624
C        0.8647076195   -0.0064389569    0.5290981420
N        3.3968838807   -0.2016131191    1.3851516538
N        1.8813030982   -0.9642334146   -2.7339876046
N        1.9174837235   -0.4578163703   -0.3894929308
S        0.4359922641   -2.5954223109   -1.3281879776
H        6.3500937152   -1.6561142919   -0.6636830776
H        6.6913761977   -0.8979872171    1.7231075233
H        4.0966012026   -1.4260497227   -1.6925144938
H        4.7216054949    0.0399583564    2.9456735603
H        1.5429072816   -1.7946623556   -4.6632672232
H       -0.0638549472   -3.5943659213   -3.5395086077
H        1.1903825661    0.9076288802    1.0248939901
H        0.6433142452   -0.7508190452    1.3042629329
H       -0.0337625615    0.1960223376   -0.0556078612
22   
Generated by ForceBalance from scan.xyz: Frame 8 of 24
C        5.5553805597   -1.1171523699   -0.0866180197
C        5.7153183812   -0.7637483263    1.2603855446
C        4.3043021485   -1.0223050604   -0.6832260181
C        4.5865190160   -0.3245398884    1.9463906680
C        1.4383430283   -2.0015068444   -3.5816067230
C        0.3823808237   -2.7134982363   -3.0870671093
C        3.2223970890   -0.5860413867    0.1116997818
C        1.5117393649   -1.2001475857   -1.5155457033
C        0.8589753784   -0.0379452559    0.5287808581
N        3.3652954217   -0.2409690021    1.3973425002
N        2.0571915581   -1.1404534990   -2.7013513276
N        1.9110326590   -0.4637620602   -0.4030605898
S        0.1517131514   -2.3379646509   -1.4084677904
H        6.4058843224   -1.4528917974   -0.6747771252
H        6.6795238500   -0.8189442391    1.7561750849
H        4.1589678712   -1.2522701285   -1.7300614435
H        4.6529401118   -0.0274935762    2.9921643844
H        1.7893516940   -2.0463567966   -4.6069104866
H       -0.2773728819   -3.3941232648   -3.6089667138
H        1.2043611576    0.8358157936    1.0787265207
H        0.6113039633   -0.8182397140    1.2593872945
H       -0.0282810075    0.2226414594   -0.0499575368
22   
Generated by ForceBalance from scan.xyz: Frame 9 of 24
C        5.5985355209   -1.0330172381   -0.0881441821
C        5.7515204275   -0.6960719009    1.2626764048
C        4.3417329385   -0.9782295430   -0.6801055090
C        4.6090480971   -0.3128072035    1.9605847615
C        1.4799776322   -2.1233879547   -3.5208116412
C        0.2705764606   -2.6042387331   -3.1102348276
C        3.2468257462   -0.5996108344    0.1257896698
C        1.5100089614   -1.2306213175   -1.4902414752
C        0.8788817577   -0.0819115195    0.5654743564
N        3.3847870744   -0.2693270313    1.4166517350
N        2.1653722176   -1.3406300243   -2.6170991153
N        1.9217949391   -0.5201475999   -0.3706092601
S       -0.0442774144   -2.0933492594   -1.4788435053
H        6.4584589993   -1.3251999955   -0.6858037398
H        6.7194187897   -0.7210855209    1.7537702030
H        4.1981008014   -1.2006585749   -1.7277796164
H        4.6678307504   -0.0303041570    3.0108475288
H        1.9108932050   -2.2899165170   -4.5022657295
H       -0.4516021601   -3.1875970442   -3.6656901542
H        1.2579974852    0.7506049349    1.1537082240
H        0.5873816122   -0.8800316276    1.2594657662
H        0.0099952592    0.2438745278   -0.0086582194
22   
Generated by ForceBalance from scan.xyz: Frame 10 of 24
C        5.6406170306   -0.9739582432   -0.0942460109
C        5.8084310167   -0.6372833843    1.2538698570
C        4.3711055958   -0.9636871769   -0.6630340579
C        4.6656252624   -0.2989951917    1.9751635402
C        1.4732100986   -2.2145512345   -3.4332280904
C        0.1710327211   -2.4605356333   -3.1116791210
C        3.2787158837   -0.6245725104    0.1636295084
C        1.5067581477   -1.2525614722   -1.4338804522
C        0.9089510607   -0.1173725699    0.6353282340
N        3.4320238000   -0.2958262469    1.4540257972
N        2.2175501123   -1.5287460077   -2.4981083804
N        1.9393848884   -0.5837628987   -0.3007033750
S       -0.1744088703   -1.8273298859   -1.5280690792
H        6.4981282398   -1.2343972176   -0.7097802999
H        6.7857196830   -0.6303177586    1.7266650585
H        4.2140598589   -1.1995215852   -1.7049310977
H        4.7334658914   -0.0205975374    3.0259777258
H        1.9431314880   -2.4994166012   -4.3685740554
H       -0.5965112701   -2.9413569735   -3.7030783773
H        1.3357340945    0.6471227003    1.2785918740
H        0.5403909697   -0.9310690612    1.2719155230
H        0.0797059415    0.3070897159    0.0657555393
22   
Generated by ForceBalance from scan.xyz: Frame 11 of 24
C        5.6659910254   -0.9191138256   -0.1008624644
C        5.8507182863   -0.5570976591    1.2378015826
C        4.3845526660   -0.9718488749   -0.6408089625
C        4.7102941513   -0.2576278327    1.9802372629
C        1.4716724320   -2.3039683995   -3.3638423757
C        0.1266418829   -2.3288209115   -3.1437584181
C        3.2966293824   -0.6604973103    0.2028752485
C        1.5093467863   -1.2948263682   -1.3877085154
C        0.9119261891   -0.1803198674    0.6852625664
N        3.4678124268   -0.3094409022    1.4855280639
N        2.2452463845   -1.7211027150   -2.3840050396
N        1.9464377224   -0.6722267725   -0.2330137520
S       -0.2320048284   -1.5921260450   -1.6075522054
H        6.5189704316   -1.1551835906   -0.7323061530
H        6.8369769367   -0.5048006573    1.6885852170
H        4.2155012948   -1.2440556927   -1.6712596287
H        4.7886506068    0.0353324127    3.0263488376
H        1.9598356109   -2.6964111533   -4.2496398842
H       -0.6607252216   -2.7113232395   -3.7790823605
H        1.3804148952    0.4478109614    1.4362171814
H        0.4056412538   -1.0091439628    1.1946075841
H        0.1774311060    0.4035811042    0.1239462606
22   
Generated by ForceBalance from scan.xyz: Frame 12 of 24
C        5.6716366931   -0.9371688210   -0.1052164587
C        5.8757475435   -0.3590736513    1.1518428010
C        4.3817129911   -1.0979690951   -0.6021987640
C        4.7429349635    0.0365468898    1.8601663877
C        1.4772694154   -2.2570167838   -3.4058066357
C        0.1285182070   -2.1159272628   -3.2683332510
C        3.3021129050   -0.6625860989    0.1971165751
C        1.5143761533   -1.3121928831   -1.3973443734
C        0.8953072425   -0.2857390538    0.7071291654
N        3.4942747270   -0.1078737369    1.4030077950
N        2.2528406565   -1.8078894840   -2.3597309021
N        1.9433189120   -0.7721838998   -0.1997509082
S       -0.2329518806   -1.3727567939   -1.7361905303
H        6.5160336368   -1.2661538755   -0.7059144132
H        6.8688786473   -0.2197485493    1.5675471386
H        4.2010450787   -1.5414363918   -1.5688400344
H        4.8336692553    0.4931776814    2.8448654106
H        1.9680696527   -2.6923880058   -4.2698292726
H       -0.6591817869   -2.3940921427   -3.9553405775
H        1.3688101336    0.1082352759    1.6002473403
H        0.2236698938   -1.1053219513    0.9848860499
H        0.3148969340    0.5081840669    0.2246500195
22   
Generated by ForceBalance from scan.xyz: Frame 13 of 24
C        5.6611938666   -1.0140071153   -0.0809262766
C        5.8645286736   -0.2531025439    1.0752152779
C        4.3695341412   -1.2764994129   -0.5272832184
C        4.7314152300    0.2130176454    1.7387945415
C        1.4808451173   -2.2676395729   -3.4161825954
C        0.1543174378   -1.9600337189   -3.3541528856
C        3.2912975908   -0.7463811922    0.2135939668
C        1.5071373030   -1.3977549354   -1.3746795532
C        0.8928268311   -0.4699387835    0.7828391380
N        3.4803935729   -0.0193352650    1.3243087927
N        2.2371866484   -1.9576757485   -2.3071164046
N        1.9315993295   -0.9492118841   -0.1374670928
S       -0.2069568278   -1.2186355960   -1.8209192717
H        6.5066684740   -1.4121722146   -0.6365163052
H        6.8588568075   -0.0321404012    1.4508743789
H        4.1858953445   -1.8651332748   -1.4128432058
H        4.8237089218    0.8069279259    2.6471345351
H        1.9659012123   -2.7421766716   -4.2626320527
H       -0.6196870319   -2.1300780326   -4.0902835436
H        1.3323173891   -0.3332393942    1.7657046472
H        0.0890300773   -1.2090342985    0.8389533951
H        0.4811509646    0.4908680989    0.4509893414
22   
Generated by ForceBalance from scan.xyz: Frame 14 of 24
C        5.6403277348   -0.9708537840   -0.0975665437
C        5.8332313678   -0.1738955422    1.0367045593
C        4.3523789214   -1.2972011082   -0.5098486778
C        4.6957138803    0.2616250559    1.7127903974
C        1.4654106964   -2.3482790726   -3.3729816276
C        0.2051500058   -1.8285294720   -3.4072102724
C        3.2693214520   -0.7864119188    0.2369994391
C        1.4957741900   -1.4431719272   -1.3471499188
C        0.8853905184   -0.5392033907    0.8295527774
N        3.4461450523   -0.0270890363    1.3273363043
N        2.1835083887   -2.1414163007   -2.2152407892
N        1.9135496682   -1.0464879202   -0.0875238067
S       -0.1295838530   -0.9960628132   -1.9162206309
H        6.4913401054   -1.3500869147   -0.6579237056
H        6.8247904561    0.0944911310    1.3880678213
H        4.1738413962   -1.9262981613   -1.3690263183
H        4.7820327934    0.8782317061    2.6064684362
H        1.9195891283   -2.9211034488   -4.1745078946
H       -0.5401034044   -1.9024090213   -4.1877240320
H        1.2683228398   -0.5769813526    1.8455874079
H       -0.0016554615   -1.1710084965    0.7508413976
H        0.6182487182    0.5006658323    0.6048637046
22   
Generated by ForceBalance from scan.xyz: Frame 15 of 24
C        5.6037317691   -0.9247216307   -0.1400162389
C        5.7822216843   -0.1243451119    0.9954188894
C        4.3236335187   -1.2985324117   -0.5331528497
C        4.6400569326    0.2647752466    1.6905516970
C        1.4604570335   -2.4734052285   -3.3599718429
C        0.3171749934   -1.7438383868   -3.5119895780
C        3.2337859623   -0.8282912194    0.2302207293
C        1.4947839570   -1.5000890146   -1.3669497854
C        0.8492118829   -0.6127363343    0.8100312844
N        3.3952631385   -0.0680133047    1.3212817415
N        2.1099611150   -2.3474660186   -2.1510763845
N        1.8874599562   -1.1388032394   -0.0850895555
S        0.0259020711   -0.7992250879   -2.0821696756
H        6.4607749795   -1.2703933189   -0.7127406801
H        6.7681141335    0.1792283393    1.3337790395
H        4.1570429211   -1.9419398079   -1.3852168643
H        4.7169215852    0.8793057820    2.5865214373
H        1.8633877157   -3.1535720956   -4.1027281356
H       -0.3723350280   -1.7290026027   -4.3455007581
H        1.1764147910   -0.7315177956    1.8403964355
H       -0.0683447600   -1.1816859972    0.6515251143
H        0.6592331329    0.4538940521    0.6374168215
22   
Generated by ForceBalance from scan.xyz: Frame 16 of 24
C        5.5674030008   -0.8662509907   -0.2050677664
C        5.7497796257   -0.0798453214    0.9408727954
C        4.2894247922   -1.2700068874   -0.5709676106
C        4.6151572603    0.2629539040    1.6708233857
C        1.4057815768   -2.5970045395   -3.3098843402
C        0.4393133419   -1.6693220841   -3.5779968098
C        3.2060385505   -0.8466105652    0.2289502018
C        1.4924129900   -1.5408265524   -1.3623728224
C        0.8215095622   -0.6692997093    0.8160729723
N        3.3699339068   -0.1000887177    1.3281096065
N        1.9810380188   -2.5322412600   -2.0592444420
N        1.8689300033   -1.1999956537   -0.0658039325
S        0.2460023432   -0.6083410907   -2.2182476575
H        6.4198867956   -1.1757567171   -0.8046456384
H        6.7345232423    0.2473563167    1.2598610614
H        4.1226531366   -1.9080647222   -1.4282340119
H        4.6974203121    0.8641534124    2.5753085630
H        1.7165577567   -3.3818282659   -3.9910080757
H       -0.1775391693   -1.5721372517   -4.4617088740
H        1.1107897944   -0.8379690677    1.8519186667
H       -0.1075722806   -1.2009025361    0.6055184341
H        0.6722552687    0.4093101596    0.6804952161
22   
Generated by ForceBalance from scan.xyz: Frame 17 of 24
C        5.5499344500   -0.7779165959   -0.3061823784
C        5.7633146557   -0.0531524535    0.8755224839
C        4.2651395896   -1.1802156842   -0.6458049543
C        4.6521606712    0.2312368338    1.6641620421
C        1.2834208099   -2.6770626589   -3.2347816512
C        0.5720216306   -1.5750146198   -3.6231835989
C        3.2071157590   -0.8250248109    0.2200715060
C        1.4982755462   -1.5305992967   -1.3508849136
C        0.8266457012   -0.6889749706    0.8440770774
N        3.3992923663   -0.1342142206    1.3508169355
N        1.7886467350   -2.6513418468   -1.9532225918
N        1.8762639944   -1.1946796897   -0.0493929261
S        0.5527906187   -0.4052675437   -2.3454780964
H        6.3835138304   -1.0365454569   -0.9544359935
H        6.7542722867    0.2735800269    1.1749280153
H        4.0775419245   -1.7680779214   -1.5353848983
H        4.7607000915    0.7854866317    2.5955214257
H        1.4458617233   -3.5572023392   -3.8473958462
H        0.0517002754   -1.4039556516   -4.5567387442
H        1.0901559660   -0.9246740683    1.8748189655
H       -0.1095979808   -1.1850635329    0.5843626627
H        0.7044859052    0.3987424844    0.7669419571
22   
Generated by ForceBalance from scan.xyz: Frame 18 of 24
C        5.5380659306   -0.7099951934   -0.3223822856
C        5.7619780234   -0.0272896261    0.8827062469
C        4.2523576579   -1.1112889935   -0.6576642025
C        4.6595214756    0.2172982005    1.6971229270
C        1.1521108979   -2.7672717161   -3.1384525562
C        0.7527027460   -1.5658901690   -3.6607286224
C        3.2042248228   -0.8029735185    0.2394771516
C        1.5202214372   -1.5388575588   -1.3323182200
C        0.8158835322   -0.7620286280    0.8805809663
N        3.4051110590   -0.1491920570    1.3914587187
N        1.5762844912   -2.7438006471   -1.8282599833
N        1.8855825421   -1.1853764511   -0.0297175061
S        0.9285898775   -0.3187580158   -2.4751886079
H        6.3642812787   -0.9339581348   -0.9925791510
H        6.7538798914    0.2992715438    1.1789787700
H        4.0563362569   -1.6620724439   -1.5702945991
H        4.7776588650    0.7400120761    2.6454482332
H        1.1426257759   -3.7102904248   -3.6740951572
H        0.3658584307   -1.3602733761   -4.6507259823
H        1.0889829817   -1.0206097414    1.9038320946
H       -0.0956178388   -1.2924512948    0.6003321662
H        0.6413387216    0.3204285059    0.8362442735
22   
Generated by ForceBalance from scan.xyz: Frame 19 of 24
C        5.4233827282   -0.5948368482   -0.5685189604
C        5.6726307416   -0.0574499740    0.7021565368
C        4.1220253104   -0.9038490271   -0.9420599034
C        4.5793145516    0.1304507825    1.5447390913
C        0.6413630108   -2.9450702826   -3.0270959879
C        0.7447846652   -1.8769392772   -3.8773724585
C        3.0825903936   -0.6504395130   -0.0178260575
C        1.3777194528   -1.4732458287   -1.5452431906
C        0.7622307578   -0.9783368336    0.7710657699
N        3.3136308022   -0.1540499495    1.2059574253
N        1.0040957835   -2.7121004470   -1.7187955404
N        1.7424666912   -0.9085951204   -0.3228707424
S        1.2889999759   -0.4819584463   -3.0066751851
H        6.2408422925   -0.7827889244   -1.2601782236
H        6.6763732201    0.1934194112    1.0304038710
H        3.9145912814   -1.3434134953   -1.9105112027
H        4.7178690925    0.5288365064    2.5490922242
H        0.3172568888   -3.9387664416   -3.3168005143
H        0.5485669819   -1.8432540390   -4.9413511126
H        0.9935396179   -1.7983866187    1.4587095693
H       -0.2215714582   -1.1438501592    0.3315061014
H        0.7671607982   -0.0411771886    1.3293015089
22   
Generated by ForceBalance from scan.xyz: Frame 20 of 24
C        5.5621603543   -0.7373043779   -0.6460313151
C        5.8179476089   -0.0657747379    0.5576523848
C        4.2612592194   -1.1019227511   -0.9676502523
C        4.7322508163    0.1922718591    1.3917196241
C        0.4823607055   -3.0001711658   -2.9496499497
C        0.7805292751   -2.0078920053   -3.8426206747
C        3.2286215917   -0.7648651384   -0.0631088500
C        1.4639667311   -1.6219871062   -1.5184869114
C        0.9392629860   -1.0666635818    0.8127886406
N        3.4670519518   -0.1410660943    1.1000032250
N        0.8753731608   -2.7811006563   -1.6474484258
N        1.8901056296   -1.0839478996   -0.3092243894
S        1.5578115095   -0.6910357975   -3.0243041930
H        6.3744074457   -0.9884961959   -1.3235491591
H        6.8215096063    0.2324349117    0.8442069744
H        4.0505826530   -1.6497631836   -1.8782594415
H        4.8770544455    0.6931469385    2.3481287017
H       -0.0086050319   -3.9337812874   -3.2022240416
H        0.6121498475   -1.9904107066   -4.9116468201
H        1.2766897949   -1.7268829895    1.6167185406
H       -0.0241480981   -1.4135212032    0.4417961716
H        0.8475363286   -0.0536913144    1.2109258787
22   
Generated by ForceBalance from scan.xyz: Frame 21 of 24
C        5.5257213107   -0.7043473296   -0.5839800994
C        5.7344489447    0.0645679444    0.5696382227
C        4.2461336738   -1.1469369333   -0.8922199815
C        4.6269362270    0.3361202444    1.3701534441
C        0.2950517805   -2.8118506661   -3.0005116806
C        0.7526193688   -1.8488662098   -3.8558025849
C        3.1864384747   -0.7858674274   -0.0295840106
C        1.4245094049   -1.6278604470   -1.5045032504
C        0.8978502978   -1.1213541570    0.8374462408
N        3.3805238287   -0.0682717336    1.0869339290
N        0.6809177745   -2.6876934862   -1.6839795938
N        1.8704003428   -1.1948000881   -0.2631550230
S        1.6891801231   -0.6771338943   -2.9813969184
H        6.3583094263   -0.9722518008   -1.2295833527
H        6.7202288486    0.4257255265    0.8453633585
H        4.0712442896   -1.7746166546   -1.7579277297
H        4.7369779756    0.9105838205    2.2890269440
H       -0.3132501141   -3.6610481924   -3.2927329252
H        0.6240468524   -1.7816953125   -4.9282780541
H        1.3182031273   -1.5750694108    1.7369647797
H        0.0075511759   -1.6695729246    0.5340597373
H        0.6456978965   -0.0802732669    1.0612070525
22   
Generated by ForceBalance from scan.xyz: Frame 22 of 24
C        5.5578514089   -0.7047205528   -0.5527416381
C        5.7243100139    0.1495138019    0.5457802300
C        4.2967548356   -1.2089641402   -0.8442755875
C        4.5973264984    0.4385852367    1.3128564869
C        0.1587542748   -2.6820402618   -2.9945915447
C        0.7943951571   -1.8386376364   -3.8597774291
C        3.2131705599   -0.8200714443   -0.0262195191
C        1.4439609036   -1.6712523895   -1.4953765029
C        0.9428464615   -1.2167640398    0.8579720218
N        3.3688038229   -0.0233868293    1.0412283294
N        0.5288154821   -2.5892853658   -1.6709177009
N        1.9122355683   -1.2900547157   -0.2470825893
S        1.9065720620   -0.8240079338   -2.9882530203
H        6.4082515005   -0.9925794103   -1.1656134841
H        6.6939905384    0.5609380236    0.8079727012
H        4.1560459463   -1.9061729303   -1.6615067854
H        4.6760398362    1.0763911462    2.1922388408
H       -0.5816401052   -3.4208245996   -3.2822412767
H        0.7070440050   -1.7795614803   -4.9366822527
H        1.4081997252   -1.5797487802    1.7753455748
H        0.0937887914   -1.8463569688    0.6000290218
H        0.6173658975   -0.1843660288    1.0198875047
22   
Generated by ForceBalance from scan.xyz: Frame 23 of 24
C        5.5832389030   -0.7230376284   -0.5423175550
C        5.7073878860    0.2072197441    0.4975694377
C        4.3412296541   -1.2849277314   -0.8132710489
C        4.5617283912    0.5108596810    1.2315444456
C        0.0379357625   -2.5284498444   -3.0074544564
C        0.8289840444   -1.8392351672   -3.8786710695
C        3.2354143670   -0.8730162117   -0.0399107992
C        1.4528590360   -1.7170462505   -1.5028728614
C        0.9871513931   -1.3422164228    0.8634146655
N        3.3518995388   -0.0048407948    0.9746850678
N        0.3892165628   -2.4599005098   -1.6769862922
N        1.9502159298   -1.3992737263   -0.2489748733
S        2.0948378449   -1.0185111947   -3.0063614731
H        6.4509081780   -1.0265058315   -1.1224700273
H        6.6603316374    0.6653284000    0.7433848174
H        4.2335780128   -2.0448015242   -1.5780516249
H        4.6092770190    1.2061855164    2.0684658910
H       -0.8194319604   -3.1288719018   -3.2926405679
H        0.7726665568   -1.7909363516   -4.9580203839
H        1.5039558591   -1.5812864944    1.7925395939
H        0.2042903578   -2.0721391784    0.6689238402
H        0.5533264845   -0.3410391139    0.9530377650
22   
Generated by ForceBalance from scan.xyz: Frame 24 of 24
C        5.7052588534   -1.3183122383    0.0109839471
C        5.7303258568   -1.1534365551    1.4006560160
C        4.5304399967   -1.0577731753   -0.6868098535
C        4.5617850396   -0.7101126654    2.0201339119
C        0.1392737454   -1.8719403749   -3.0870157845
C        0.9979515570   -2.9220739541   -3.2149273112
C        3.3904195021   -0.6642528477    0.0419043836
C        1.6368389879   -1.1765230871   -1.6045371348
C        1.2356161451    0.5497269062    0.0521289193
N        3.4152976633   -0.4760767445    1.3682972658
N        0.4951533108   -0.8950319805   -2.1820415418
N        2.1665532084   -0.3877631623   -0.5974801720
S        2.3548237274   -2.7113225198   -2.1376861003
H        6.5983169349   -1.6219177999   -0.5290937552
H        6.6276955190   -1.3413238388    1.9819399587
H        4.5054698751   -1.1194341547   -1.7683504211
H        4.5371325724   -0.5368196335    3.0950526707
H       -0.7834123213   -1.7561302160   -3.6458904940
H        0.9378654031   -3.7786351107   -3.8729307320
H        1.8152171355    1.2648778869    0.6325373439
H        0.5487965918    0.0216245006    0.7213060607
H        0.6620821002    1.0580740654   -0.7215214199
