30   

C       -1.4854496971    0.9634569184    0.9076647482
C       -1.2341566055   -0.2557730243    1.5397196006
C       -0.5037058465    1.5386456114    0.0991573583
C        5.5528354529    1.2263097174   -1.2597805022
C       -0.0016993567   -0.8969106170    1.3688503563
C        0.7285132701    0.8985445994   -0.0723264162
C        5.1995652158    0.0113285419   -1.8384494946
C        4.8896723257    1.6546004303   -0.1147636684
C        1.0067420072   -0.3261700446    0.5726806518
C        3.4642495892   -0.3164043582   -0.1651246874
C        4.1827639819   -0.7788849789   -1.2957703113
C        3.8575027723    0.8967287303    0.4419743318
C        2.2913810884   -1.0575555883    0.3842140039
C        3.8259363450   -3.1611583677   -1.1471085257
C        3.5598033993   -3.1145705517    0.3600485603
N        2.3393171140   -2.3409428263    0.6754395454
N        3.9382354406   -2.0142884039   -1.8967849705
O        3.9824478398   -4.2220751622   -1.7310545813
F        3.2554269265    1.3460256286    1.5678909300
H       -2.4412434532    1.4580466035    1.0395459586
H       -1.9960911675   -0.7101709633    2.1628122496
H       -0.6985470825    2.4799547828   -0.4020481685
H        6.3487011872    1.8259584501   -1.6892913284
H        0.1592921246   -1.8455300136    1.8701540938
H        1.4601590496    1.3604467697   -0.7250841592
H        5.7387434745   -0.3302955621   -2.7145527715
H        5.1701038553    2.5883987558    0.3580412448
H        3.4378082458   -4.1412079088    0.7163537222
H        4.4288074006   -2.6890521165    0.8697743512
H        4.2578054130   -2.1997577670   -2.8387604580
30   

C       -1.4479566952    1.0163146313    0.9392904850
C       -1.1304369958   -0.1085336679    1.7044524333
C       -0.5603878103    1.4587881587   -0.0441766847
C        5.5529696896    1.2402755289   -1.1688076037
C        0.0729570879   -0.7897681393    1.4875012855
C        0.6425579081    0.7778032557   -0.2605654850
C        5.2415843704    0.0296098906   -1.7791362404
C        4.8295066606    1.6471573894   -0.0532963194
C        0.9777853201   -0.3570938044    0.5053286860
C        3.4370081711   -0.3438618499   -0.1901524682
C        4.2097049786   -0.7797013043   -1.2961179001
C        3.7816769168    0.8705277726    0.4450477354
C        2.2481215831   -1.1034158293    0.2910800637
C        3.8355684927   -3.1682463337   -1.2352279457
C        3.4986721869   -3.1685023390    0.2576075216
N        2.2729852546   -2.3937338835    0.5478948443
N        3.9980395004   -1.9997426124   -1.9402433783
O        4.0098050148   -4.2111107962   -1.8459844491
F        3.1218680142    1.3034413374    1.5447163820
H       -2.3811000641    1.5423251581    1.1068893416
H       -1.8174070380   -0.4568560262    2.4673166912
H       -0.8048846835    2.3290111387   -0.6426238449
H        6.3606994272    1.8548958218   -1.5525382749
H        0.2991933169   -1.6620182300    2.0918488944
H        1.3134055210    1.1322467147   -1.0353745125
H        5.8234836422   -0.2919056434   -2.6352813006
H        5.0738280900    2.5793752768    0.4421041251
H        3.3520323949   -4.2052821990    0.5729380750
H        4.3474182747   -2.7696568236    0.8202500762
H        4.3615302076   -2.1589751086   -2.8710541896
30   

C       -1.4080196660    1.0523478418    0.9474831038
C       -0.9993840031    0.0430000398    1.8235620093
C       -0.6373294191    1.3465880513   -0.1803385463
C        5.5647432295    1.2492397883   -1.0697714843
C        0.1766908086   -0.6726767159    1.5705439685
C        0.5382038612    0.6303893776   -0.4314263815
C        5.2886596481    0.0489617040   -1.7159581257
C        4.7894244399    1.6307209502    0.0191626969
C        0.9550072189   -0.3946449240    0.4381513116
C        3.4220056168   -0.3697718904   -0.2112912901
C        4.2425910625   -0.7763596676   -1.2943038497
C        3.7269024507    0.8380620841    0.4574801725
C        2.2192823203   -1.1462883211    0.2003763477
C        3.8577868971   -3.1673722433   -1.3252332157
C        3.4581687918   -3.2159916603    0.1506816965
N        2.2274610815   -2.4423651001    0.4212999746
N        4.0611383914   -1.9776571902   -1.9819779084
O        4.0499599169   -4.1901886958   -1.9638166909
F        3.0181546020    1.2502443051    1.5343560361
H       -2.3195858168    1.6058049503    1.1430524277
H       -1.5931741872   -0.1870675675    2.7008615436
H       -0.9498528632    2.1302200613   -0.8611098636
H        6.3834915301    1.8767094160   -1.4064250285
H        0.4846193978   -1.4526878479    2.2589334236
H        1.1292071166    0.8694831457   -1.3088874320
H        5.9080328615   -0.2505286668   -2.5535837723
H        5.0035651274    2.5560939429    0.5406420683
H        3.2922281518   -4.2619416465    0.4233150022
H        4.2859740014   -2.8440970620    0.7609334907
H        4.4643679766   -2.1090526239   -2.9007115624
30   

C       -1.3746515146    1.0758045399    0.9324058723
C       -0.8515928105    0.2233016706    1.9089081939
C       -0.7361988853    1.1874669481   -0.3057866715
C        5.5859744861    1.2530609316   -0.9538267756
C        0.3055413916   -0.5188820414    1.6451010390
C        0.4204532105    0.4442042807   -0.5661711175
C        5.3296191036    0.0716230515   -1.6408519949
C        4.7787831100    1.6039731557    0.1217445152
C        0.9461565219   -0.4278208822    0.4029578978
C        3.4219240389   -0.3918800853   -0.2007514707
C        4.2726855577   -0.7654885436   -1.2729908701
C        3.7050633278    0.7992553216    0.5078700726
C        2.2093964419   -1.1829946519    0.1494472314
C        3.8785602273   -3.1541960084   -1.4019695350
C        3.4354037889   -3.2565767932    0.0583520002
N        2.2028350907   -2.4848504710    0.3249491058
N        4.1090554075   -1.9421831190   -2.0066539717
O        4.0822829950   -4.1531108798   -2.0738959723
F        2.9680320215    1.1848787735    1.5751663691
H       -2.2711414676    1.6505603086    1.1360416880
H       -1.3408634006    0.1370211105    2.8723941965
H       -1.1355493686    1.8513913257   -1.0640358260
H        6.4129770072    1.8902802009   -1.2494474438
H        0.7086348989   -1.1750341740    2.4091235788
H        0.9148667011    0.5426024186   -1.5265200598
H        5.9721423291   -0.2029848553   -2.4695047306
H        4.9760173983    2.5153388814    0.6736340692
H        3.2548049544   -4.3110159411    0.2851801565
H        4.2477477702   -2.9151176733    0.7059853991
H        4.5385341722   -2.0421882327   -2.9174256320
30   

C       -1.3916776302    1.0869786749    0.8892939416
C       -0.7309605439    0.4670977987    1.9534269382
C       -0.8886675626    0.9585193744   -0.4079758977
C        5.6274698768    1.2245430907   -0.8277637289
C        0.4282221942   -0.2815938622    1.7183203077
C        0.2705476239    0.2090763838   -0.6375329651
C        5.3444619001    0.0817797042   -1.5668217991
C        4.8311091004    1.5415942145    0.2657061205
C        0.9367403781   -0.4283160278    0.4227237435
C        3.4308166150   -0.4093865093   -0.1413538925
C        4.2715070599   -0.7493706313   -1.2335837440
C        3.7417597654    0.7426650834    0.6189768779
C        2.2006859716   -1.1926485338    0.1667090963
C        3.8312840091   -3.1212433026   -1.4766306037
C        3.3800951567   -3.2848888417   -0.0245679277
N        2.1621536924   -2.5007879331    0.2705529034
N        4.0823495222   -1.8858078658   -2.0227713993
O        4.0180399849   -4.0901705821   -2.1957422541
F        3.0205463313    1.0968932074    1.7064059616
H       -2.2901848561    1.6662964856    1.0698187008
H       -1.1153221703    0.5659183180    2.9622006300
H       -1.3955291624    1.4397112296   -1.2367089571
H        6.4661274794    1.8579846581   -1.0975004488
H        0.9371390706   -0.7580791492    2.5491850486
H        0.6582332753    0.1178484395   -1.6463834167
H        5.9781052656   -0.1669356170   -2.4103401188
H        5.0489247747    2.4226000691    0.8576807396
H        3.1761411713   -4.3449151850    0.1505232735
H        4.1958545467   -2.9913651955    0.6419644188
H        4.5098132640   -1.9500425296   -2.9377092489
30   

C       -1.2749172240    0.7195763280    0.6763969178
C       -0.4807090804    0.4407226837    1.7910274827
C       -0.8366928353    0.3437832308   -0.5949560769
C        5.8629401492    1.3333159614   -0.7000652886
C        0.7486887373   -0.2099599020    1.6321441983
C        0.3933071749   -0.3055743472   -0.7464269170
C        5.5994203131    0.2441961182   -1.5210353839
C        5.0835580963    1.5337791714    0.4315783692
C        1.2052906993   -0.5911517019    0.3652192855
C        3.7296417080   -0.4215961943   -0.1028574088
C        4.5609081686   -0.6454843771   -1.2335428144
C        4.0275495344    0.6743620092    0.7422025135
C        2.5272318271   -1.2719643713    0.1447278193
C        4.2256310969   -3.0085348523   -1.6420398486
C        3.7892460900   -3.2941870953   -0.2044858758
N        2.5376968565   -2.5846372594    0.1340294951
N        4.3994504613   -1.7260516830   -2.1034189657
O        4.4562693023   -3.9142213587   -2.4277866183
F        3.3335548904    0.9184131359    1.8739183254
H       -2.2284631495    1.2210982412    0.7978634636
H       -0.8185073878    0.7235452044    2.7815121564
H       -1.4493084142    0.5528377992   -1.4646073829
H        6.6746662189    2.0138583995   -0.9352457748
H        1.3423306876   -0.4372393042    2.5104426853
H        0.7251297967   -0.5954740458   -1.7376562436
H        6.2221665441    0.0834203272   -2.3935178558
H        5.2893009118    2.3702919041    1.0888251006
H        3.6313795382   -4.3715891753   -0.1036276043
H        4.5920046268   -3.0105021694    0.4818088956
H        4.8163815440   -1.7047163954   -3.0251828309
30   

C       -1.3051610791    0.6953302985    0.5625807648
C       -0.4303057229    0.7247489663    1.6494538562
C       -0.9341118758    0.0198660195   -0.5996823905
C        5.9230809216    1.3024173031   -0.5798965461
C        0.8148485308    0.0883425282    1.5708807315
C        0.3112416711   -0.6123689305   -0.6717404183
C        5.5590143787    0.3103055569   -1.4807244242
C        5.2456550964    1.4014520662    0.6281010084
C        1.2153879045   -0.5823349093    0.4074991836
C        3.7654880521   -0.4308156642    0.0001048458
C        4.5119771799   -0.5713175194   -1.2010168872
C        4.1846278117    0.5459019197    0.9340780863
C        2.5418808964   -1.2651962186    0.2249849833
C        4.1328262915   -2.8918803566   -1.7479464266
C        3.7603263806   -3.2714686955   -0.3124293692
N        2.5287145493   -2.5739395274    0.1134393622
N        4.2694076219   -1.5797057929   -2.1362033568
O        4.3268440094   -3.7442784849   -2.6003999876
F        3.6198623715    0.6665330100    2.1514671655
H       -2.2706350789    1.1848095903    0.6244527571
H       -0.7210832482    1.2309860576    2.5629283820
H       -1.6100843977   -0.0179146111   -1.4464256397
H        6.7400597942    1.9787286449   -0.8090459121
H        1.4303381355    0.0886770842    2.4587707561
H        0.5872101514   -1.1362422912   -1.5809639593
H        6.1125152549    0.2151429963   -2.4077987619
H        5.5406996593    2.1511302731    1.3526510989
H        3.5958451524   -4.3519329314   -0.2748277962
H        4.5930165940   -3.0368092198    0.3566228193
H        4.6342086183   -1.4980927822   -3.0764899891
30   

C       -1.3625089142    0.6233422855    0.5240598024
C       -0.3881175674    0.9395206601    1.4703368176
C       -1.0663488401   -0.2914054947   -0.4843305866
C        5.9468422603    1.3164323083   -0.4267224804
C        0.8805870571    0.3491092431    1.4055235977
C        0.2015117470   -0.8777169523   -0.5442844695
C        5.5133829096    0.4476388217   -1.4217473879
C        5.3468353712    1.2665825513    0.8267374098
C        1.2103537855   -0.5631871582    0.3913634498
C        3.7753018618   -0.4187882330    0.0482782042
C        4.4619223408   -0.4423222473   -1.1911358429
C        4.2842844715    0.3958271400    1.0824581584
C        2.5378759208   -1.2458880739    0.2399356253
C        4.0633447187   -2.7106973313   -1.8922527590
C        3.7487707105   -3.1995614366   -0.4722569563
N        2.5262811069   -2.5458536055    0.0429014188
N        4.1712919091   -1.3707203912   -2.1925703810
O        4.2301329417   -3.4983962634   -2.8102365871
F        3.8123721701    0.3195773491    2.3448001375
H       -2.3445889109    1.0798812612    0.5757396665
H       -0.6164606672    1.6415534020    2.2642726366
H       -1.8176881102   -0.5514617869   -1.2213778951
H        6.7668219465    2.0011557223   -0.6168994533
H        1.5747777359    0.6201617215    2.1833148116
H        0.4101446643   -1.5907013887   -1.3353613039
H        6.0202599030    0.4488320739   -2.3798412341
H        5.7099853981    1.9023591402    1.6253858887
H        3.5939150514   -4.2815464539   -0.5068897389
H        4.6031091648   -3.0056805776    0.1825788486
H        4.4988628706   -1.2184203097   -3.1377161422
30   

C       -1.3953840343    0.5925440330    0.5638237131
C       -0.3302352659    1.1088880382    1.2999667325
C       -1.1811346779   -0.4974080394   -0.2763565098
C        5.9682367244    1.3169305095   -0.2931120505
C        0.9455428988    0.5403426082    1.1948234301
C        0.0938543720   -1.0624114050   -0.3772738461
C        5.5344094364    0.5144055466   -1.3435632554
C        5.3546231458    1.2007045154    0.9505768157
C        1.1951930337   -0.5529891977    0.3490428314
C        3.7675022691   -0.4052246380    0.0524995867
C        4.4685577156   -0.3724481506   -1.1760301784
C        4.2765556275    0.3322965283    1.1412332466
C        2.5225424563   -1.2307163947    0.1990942365
C        4.0686037186   -2.6046112350   -1.9747992503
C        3.7524362012   -3.1510448700   -0.5747126334
N        2.5242452453   -2.5254250277   -0.0369212996
N        4.1827792414   -1.2533611730   -2.2201465538
O        4.2368902215   -3.3552800544   -2.9230887222
F        3.7789201305    0.1807464956    2.3896761462
H       -2.3825247986    1.0335999521    0.6451177110
H       -0.4908707877    1.9559769550    1.9572008216
H       -2.0019191153   -0.9105717631   -0.8516898398
H        6.8004193456    1.9989146131   -0.4337456901
H        1.7216074531    0.9975604016    1.7868067716
H        0.2275002041   -1.9128751921   -1.0378661710
H        6.0538989490    0.5616286113   -2.2937170476
H        5.7191489910    1.7804812229    1.7901745531
H        3.6042134299   -4.2317049616   -0.6524561560
H        4.6038622900   -2.9790512538    0.0899756267
H        4.5168881399   -1.0619796755   -3.1558355116
30   

C       -1.4013460186    0.6020697865    0.6177994763
C       -0.2712514765    1.2484955464    1.1151513224
C       -1.2580971265   -0.6192116740   -0.0359369762
C        5.9829393722    1.3016238552   -0.1745742072
C        0.9979020472    0.6771238559    0.9595581623
C        0.0105147135   -1.1873411271   -0.1882292013
C        5.5796050240    0.5336739909   -1.2628596421
C        5.3173629408    1.1646530244    1.0401717164
C        1.1767213221   -0.5509647835    0.3009932529
C        3.7504551548   -0.3999427001    0.0392127777
C        4.4971497176   -0.3432090786   -1.1608124978
C        4.2208435897    0.3077771750    1.1644246321
C        2.5016625607   -1.2251632483    0.1332735185
C        4.1046175769   -2.5465403329   -2.0356939910
C        3.7521176677   -3.1282378308   -0.6588441421
N        2.5127350724   -2.5148090655   -0.1321466274
N        4.2388703084   -1.1905113508   -2.2388225182
O        4.2928098471   -3.2722648009   -2.9995576413
F        3.6488381122    0.1502397368    2.3812430778
H       -2.3835154173    1.0454656554    0.7375042333
H       -0.3756424846    2.2009419392    1.6223543830
H       -2.1295588553   -1.1324433342   -0.4265156723
H        6.8291172551    1.9749400219   -0.2643954562
H        1.8282618956    1.2454604010    1.3499595450
H        0.0807261595   -2.1413339264   -0.7002584921
H        6.1360171935    0.5992846223   -2.1907743584
H        5.6523779078    1.7211212536    1.9074276311
H        3.6040526420   -4.2060786649   -0.7690386183
H        4.5876413010   -2.9766135993    0.0304969412
H        4.6018508095   -0.9749333339   -3.1583576481
30   

C       -1.3883054354    0.6303816360    0.6684342630
C       -0.2218460313    1.3520084787    0.9164630056
C       -1.2969222014   -0.6830132071    0.2135500143
C        5.9871165249    1.2652444050   -0.0644505021
C        1.0321794345    0.7632588111    0.7118254896
C       -0.0433015743   -1.2687769599    0.0110985132
C        5.6288852870    0.5164344937   -1.1815424178
C        5.2559187018    1.1277190667    1.1116156643
C        1.1572832009   -0.5583686788    0.2527167738
C        3.7284524726   -0.4144806634    0.0166424526
C        4.5319507341   -0.3479800619   -1.1462783622
C        4.1434907811    0.2849390832    1.1693195529
C        2.4754256581   -1.2336682763    0.0526186938
C        4.1432381001   -2.5223290344   -2.0948393611
C        3.7323961578   -3.1320832898   -0.7477993319
N        2.4839596454   -2.5162821115   -0.2460087093
N        4.3106681870   -1.1650822251   -2.2551505930
O        4.3575592401   -3.2261346400   -3.0694412460
F        3.4859946311    0.1475786191    2.3448119157
H       -2.3589214520    1.0871244085    0.8261506017
H       -0.2865278804    2.3762978928    1.2656485509
H       -2.1972695047   -1.2541271016    0.0171047204
H        6.8452122830    1.9283058585   -0.1030099815
H        1.8928856250    1.3894690646    0.8988862006
H       -0.0149179647   -2.2950594751   -0.3395322607
H        6.2308090306    0.5885058463   -2.0801229703
H        5.5480805043    1.6759654639    1.9994096370
H        3.5745252587   -4.2046225811   -0.8910529912
H        4.5450275455   -3.0100409918   -0.0260194651
H        4.7143403629   -0.9317746118   -3.1531535407
30   

C       -1.3666754659    0.6558655339    0.7264520602
C       -0.1966050987    1.4144007051    0.7282205122
C       -1.2970179216   -0.7120772393    0.4692624315
C        5.9774101048    1.2272845554    0.0311074324
C        1.0397534285    0.8075293991    0.4757963760
C       -0.0606965169   -1.3159278903    0.2182129148
C        5.6694264865    0.4891366113   -1.1077301656
C        5.1817347633    1.0958375452    1.1648331998
C        1.1405478513   -0.5688355882    0.2159807932
C        3.7055330177   -0.4373717280   -0.0122069439
C        4.5638131642   -0.3647566423   -1.1360102043
C        4.0597435154    0.2642999376    1.1603424672
C        2.4475223083   -1.2448981690   -0.0352086912
C        4.1704814003   -2.5062134862   -2.1634554497
C        3.6947347031   -3.1441374890   -0.8530102817
N        2.4432283008   -2.5174969355   -0.3735288135
N        4.3811214003   -1.1509839000   -2.2739576780
O        4.4066296751   -3.1859348631   -3.1500156395
F        3.3293373591    0.1457698885    2.2938345876
H       -2.3240178946    1.1262213478    0.9209568653
H       -0.2455320418    2.4800116715    0.9214090876
H       -2.2007815551   -1.3108618226    0.4642285853
H        6.8428555842    1.8817964025    0.0410446937
H        1.9088944375    1.4523310752    0.4651590150
H       -0.0443421097   -2.3835744324    0.0261718764
H        6.3155493321    0.5642408770   -1.9748280479
H        5.4284343177    1.6419974964    2.0676123548
H        3.5193112153   -4.2080823540   -1.0347826351
H        4.4830554861   -3.0626966800   -0.0992971278
H        4.8270605010   -0.9016411494   -3.1473338467
30   

C       -1.3429743362    0.6747019636    0.7788439115
C       -0.2022164593    1.4436071487    0.5455430657
C       -1.2602965311   -0.7161632387    0.7161044605
C        5.9605389777    1.1976761233    0.1148703609
C        1.0184729035    0.8235883441    0.2530448900
C       -0.0392795297   -1.3331217256    0.4242619670
C        5.6995578748    0.4684048954   -1.0410559823
C        5.1088831065    1.0719600178    1.2073481876
C        1.1291328790   -0.5746078033    0.1911146548
C        3.6845206585   -0.4559019296   -0.0397823521
C        4.5897519385   -0.3764184683   -1.1268093891
C        3.9819067167    0.2497284447    1.1470054919
C        2.4217998663   -1.2480046602   -0.1205837588
C        4.1846865215   -2.4796944377   -2.2377649281
C        3.6486950252   -3.1475975123   -0.9678256402
N        2.3993834959   -2.5080184116   -0.5008541765
N        4.4420521106   -1.1299933074   -2.2919319893
O        4.4346837815   -3.1314684457   -3.2396223159
F        3.1942200106    0.1433539251    2.2425923384
H       -2.2887789028    1.1545951834    1.0040253120
H       -0.2627907853    2.5252037867    0.5864822837
H       -2.1421461809   -1.3215648772    0.8925829885
H        6.8297525500    1.8450097253    0.1687057541
H        1.8735546984    1.4601679346    0.0585674484
H       -0.0039650360   -2.4166992797    0.3822248373
H        6.3835518721    0.5470978234   -1.8782782775
H        5.3141759347    1.6162897648    2.1215320467
H        3.4527897956   -4.1996631523   -1.1927588493
H        4.4146463698   -3.1136047361   -0.1879218896
H        4.9254156188   -0.8643403674   -3.1402509360
30   

C       -1.3258188696    0.6897532723    0.8275279481
C       -0.2425821157    1.4405038451    0.3661334010
C       -1.1988097105   -0.6934571681    0.9663569440
C        5.9463826849    1.1518969363    0.2131721669
C        0.9659650511    0.8097103227    0.0480803237
C        0.0102744964   -1.3213091503    0.6483071734
C        5.7239193037    0.4295149105   -0.9547458796
C        5.0471694995    1.0369086334    1.2675363723
C        1.1181926578   -0.5779453543    0.1932471059
C        3.6627337429   -0.4808333631   -0.0367872791
C        4.6087213411   -0.4018729128   -1.0896223352
C        3.9141333007    0.2282138919    1.1594328462
C        2.3944551000   -1.2527502402   -0.1713677642
C        4.1865382586   -2.4686312821   -2.2722607286
C        3.5941555538   -3.1580666206   -1.0407633512
N        2.3504091239   -2.5011039113   -0.5840934596
N        4.4905331870   -1.1281931421   -2.2756283433
O        4.4459791679   -3.0965846544   -3.2868100182
F        3.0802260140    0.1367986803    2.2216381457
H       -2.2627949406    1.1773229288    1.0722367254
H       -0.3394756549    2.5139142918    0.2496304223
H       -2.0374977115   -1.2837456821    1.3176778584
H        6.8199858181    1.7889925986    0.3046700414
H        1.7851464344    1.4159629802   -0.3224204552
H        0.0888487888   -2.3980525469    0.7563075002
H        6.4404175065    0.5064742734   -1.7644829142
H        5.2187321258    1.5799378620    2.1894052595
H        3.3764599293   -4.1967903818   -1.3044029809
H        4.3385516488   -3.1703025431   -0.2396774331
H        5.0080327573   -0.8527292980   -3.1003819067
30   

C       -1.3046329214    0.6989603629    0.8457333348
C       -0.3092787503    1.4099368008    0.1702008260
C       -1.0972394180   -0.6433393462    1.1725698438
C        5.9614732814    1.1062704785    0.2981797753
C        0.8932033564    0.7807096556   -0.1727417035
C        0.1057531559   -1.2697546763    0.8289734803
C        5.7649612024    0.4110740468   -0.8903529659
C        5.0254037023    0.9884174409    1.3191244797
C        1.1242359914   -0.5607883036    0.1655193635
C        3.6625071069   -0.4870004501   -0.0558214265
C        4.6411742856   -0.3982352503   -1.0784189854
C        3.8834515823    0.2011600734    1.1593805653
C        2.3878584588   -1.2329274708   -0.2481526963
C        4.2005239056   -2.4127238737   -2.3492408023
C        3.5593127936   -3.1334653177   -1.1618021252
N        2.3227951359   -2.4643636007   -0.7038322835
N        4.5443205469   -1.0836141200   -2.2907567294
O        4.4674126549   -3.0066837716   -3.3821256225
F        3.0153279931    0.1091610677    2.1937210732
H       -2.2372972559    1.1847198464    1.1097215619
H       -0.4707025361    2.4490641170   -0.0930931430
H       -1.8696281780   -1.2029320850    1.6878250576
H        6.8417093677    1.7268126918    0.4305445543
H        1.6502888336    1.3434265531   -0.7081068312
H        0.2526271844   -2.3160370001    1.0754768139
H        6.5073315748    0.4943558838   -1.6757739106
H        5.1741372110    1.5130833338    2.2554633307
H        3.3211013268   -4.1544525659   -1.4728004486
H        4.2840106004   -3.1986718314   -0.3453994613
H        5.0913880418   -0.7917868325   -3.0904438464
30   

C       -1.3150899194    0.7057048179    0.8560804348
C       -0.4309264529    1.3345403746   -0.0254431084
C       -0.9981886753   -0.5512242537    1.3786946316
C        5.9757530904    1.0336769866    0.4057142769
C        0.7711076543    0.7097294566   -0.3780236384
C        0.2041417478   -1.1732931455    1.0246650802
C        5.7914925602    0.3727485238   -0.8038405064
C        5.0139894867    0.9117912788    1.4016350766
C        1.1110176950   -0.5398070123    0.1575497092
C        3.6531758908   -0.5034982204   -0.0379993061
C        4.6554690739   -0.4071122035   -1.0374665680
C        3.8597385125    0.1531814491    1.1975257275
C        2.3687059663   -1.2163693691   -0.2797109710
C        4.1913361795   -2.3670104290   -2.3868406763
C        3.5085567319   -3.1124899738   -1.2390892621
N        2.2813702427   -2.4288238292   -0.7781079812
N        4.5695794854   -1.0511121052   -2.2733180413
O        4.4619407462   -2.9298616251   -3.4360290994
F        2.9683923022    0.0574812781    2.2113550066
H       -2.2476220912    1.1875024976    1.1276755858
H       -0.6791136244    2.3045663928   -0.4409378799
H       -1.6858783204   -1.0485632564    2.0531666097
H        6.8652584403    1.6321444102    0.5730250015
H        1.4443047448    1.2003684372   -1.0726896892
H        0.4385340139   -2.1561967359    1.4191453045
H        6.5523257102    0.4611703857   -1.5707950337
H        5.1515771596    1.4115510102    2.3531569400
H        3.2499379902   -4.1147918168   -1.5918133568
H        4.2156960300   -3.2267628422   -0.4127725938
H        5.1405718145   -0.7461989700   -3.0511086151
30   

C       -1.3380820389    0.7475585595    0.8333241000
C       -0.5734163066    1.2320260886   -0.2323596137
C       -0.9009375774   -0.3694988906    1.5512487276
C        5.9911152498    0.9683623075    0.5318686143
C        0.6306379848    0.6048018914   -0.5737384607
C        0.3028271124   -0.9947172277    1.2075533494
C        5.8052676175    0.3605434488   -0.7046401563
C        5.0193895504    0.8227410594    1.5144656822
C        1.0910485077   -0.4983622295    0.1556522339
C        3.6456737061   -0.5101658929    0.0090855299
C        4.6580371325   -0.3892652835   -0.9783584388
C        3.8538601864    0.0933528646    1.2712674650
C        2.3503728990   -1.1873814446   -0.2767086218
C        4.1722137455   -2.2801345405   -2.4165336212
C        3.4607073187   -3.0606910506   -1.3106843780
N        2.2426275009   -2.3703710599   -0.8363036075
N        4.5718734544   -0.9774289325   -2.2418927382
O        4.4438302766   -2.8014244110   -3.4867233193
F        2.9551130254   -0.0262797279    2.2750695090
H       -2.2719678982    1.2312067108    1.0968673369
H       -0.9163326132    2.0903117904   -0.7988958989
H       -1.4968250052   -0.7565937398    2.3699245809
H        6.8889472959    1.5446271512    0.7297759435
H        1.2109308394    0.9777419600   -1.4107739535
H        0.6309903859   -1.8717470800    1.7547294057
H        6.5732258776    0.4678735557   -1.4620048956
H        5.1576408302    1.2816587969    2.4862325184
H        3.1853938941   -4.0408201181   -1.7100141409
H        4.1547975261   -3.2255442551   -0.4818722812
H        5.1561357367   -0.6493651194   -3.0001607191
30   

C       -1.3592837879    0.7318281127    0.7412166498
C       -0.7068330514    0.9998997283   -0.4659975055
C       -0.8052419026   -0.1813208454    1.6432703279
C        6.0146302013    0.8814941304    0.6285562183
C        0.5047877718    0.3655113329   -0.7641132626
C        0.4053321312   -0.8158824595    1.3427803958
C        5.8049791172    0.3500780646   -0.6381855557
C        5.0630962544    0.6724413571    1.6186493071
C        1.0873620597   -0.5235980986    0.1491803092
C        3.6572194063   -0.5665734835    0.0614889492
C        4.6532724333   -0.3838355937   -0.9346528658
C        3.8929819496   -0.0423778993    1.3542806756
C        2.3549684202   -1.2225114471   -0.2563019269
C        4.1617313774   -2.1933387459   -2.4691870415
C        3.4562562691   -3.0332228975   -1.4038329645
N        2.2406256785   -2.3635777043   -0.8955477463
N        4.5483756141   -0.8970925320   -2.2291686872
O        4.4305494370   -2.6553702897   -3.5669669893
F        3.0214638925   -0.2253687402    2.3700710902
H       -2.2983180450    1.2220973000    0.9722643741
H       -1.1425821474    1.6946754318   -1.1749746291
H       -1.3169174334   -0.4050071095    2.5724220812
H        6.9154446857    1.4468000050    0.8437504675
H        0.9968043441    0.5658101839   -1.7098795478
H        0.8150293890   -1.5431783494    2.0349200613
H        6.5579894828    0.5049071950   -1.4023098560
H        5.2211189861    1.0701165301    2.6141006744
H        3.1785341252   -3.9905470118   -1.8536065783
H        4.1523899732   -3.2406759402   -0.5863816230
H        5.1221316667   -0.5236833930   -2.9743605454
30   

C       -1.3743742667    0.7201763768    0.6212146408
C       -0.8269817153    0.7176001931   -0.6641960457
C       -0.7135102358    0.0563805053    1.6581147423
C        6.0545229921    0.7935954604    0.6739234422
C        0.3906604434    0.0718642845   -0.9058593123
C        0.5029541062   -0.5923683009    1.4155291578
C        5.7823689113    0.3795632607   -0.6233673464
C        5.1635824903    0.4708192395    1.6887208310
C        1.0926369648   -0.5527874913    0.1381022851
C        3.6785600564   -0.6269425460    0.0971031487
C        4.6244265742   -0.3417355958   -0.9250507450
C        3.9881747395   -0.2346694234    1.4209643529
C        2.3643464633   -1.2594825517   -0.2413071938
C        4.1225818321   -2.0491005665   -2.5602321409
C        3.4617458050   -2.9719544327   -1.5345144005
N        2.2481124397   -2.3499953635   -0.9647123915
N        4.4683866294   -0.7556919590   -2.2495937936
O        4.3757728821   -2.4333232945   -3.6912322918
F        3.1949681583   -0.5433520425    2.4662303477
H       -2.3176095436    1.2205395246    0.8096398867
H       -1.3480044048    1.2110335638   -1.4768033954
H       -1.1510049919    0.0305481350    2.6496699451
H        6.9594266645    1.3505793309    0.8936424118
H        0.7993195968    0.0621568965   -1.9109262117
H        0.9566987523   -1.1507899061    2.2236203365
H        6.4926843862    0.6136667178   -1.4079358868
H        5.3757255026    0.7686149465    2.7087011778
H        3.1883093243   -3.9033556482   -2.0380899877
H        4.1799662908   -3.2167810580   -0.7470062911
H        5.0059826545   -0.3170754255   -2.9861488132
30   

C       -1.3457799742    0.7960248955    0.5082822909
C       -0.9576197341    0.4088690375   -0.7749736553
C       -0.5347625185    0.4817738724    1.6001697768
C        6.0158710433    0.6980364210    0.7981090567
C        0.2400330362   -0.2886128289   -0.9646328797
C        0.6642560422   -0.2163798285    1.4124874448
C        5.6760261636    0.4816798802   -0.5326810011
C        5.2211508343    0.1509173512    1.7997065984
C        1.0719711900   -0.6146682061    0.1226275039
C        3.6612515128   -0.7072596182    0.1432063242
C        4.5313102217   -0.2423404080   -0.8736555028
C        4.0626629765   -0.5657535725    1.4884966789
C        2.3452140741   -1.3322541737   -0.2156694625
C        4.0592067938   -1.8165791497   -2.6328585042
C        3.4896709159   -2.8690339213   -1.6722102433
N        2.2593781193   -2.3676770082   -1.0221635162
N        4.3262703810   -0.5284180250   -2.2246201625
O        4.2973455830   -2.0874786479   -3.7994219250
F        3.3865047223   -1.1568021251    2.4964912178
H       -2.2742330266    1.3360167117    0.6565539753
H       -1.5839601829    0.6481058965   -1.6269077386
H       -0.8365081474    0.7767870994    2.5988116362
H        6.9096386076    1.2591365600    1.0505429492
H        0.5238715651   -0.5773506853   -1.9715474235
H        1.2383364232   -0.4437213110    2.2957671651
H        6.3271464405    0.8617149882   -1.3114480111
H        5.5031923192    0.2697107430    2.8390677017
H        3.2544784106   -3.7687524678   -2.2475900699
H        4.2452997812   -3.1369884068   -0.9282466252
H        4.8088415816    0.0044116109   -2.9366848584
30   

C       -1.3582636295    0.8061164843    0.4889509754
C       -1.1130410717    0.1681755179   -0.7270749403
C       -0.3953808259    0.7619085790    1.4977192960
C        6.0116309176    0.6151559674    0.9010927108
C        0.0869787650   -0.5221218164   -0.9290982367
C        0.8067839506    0.0733051743    1.2972191049
C        5.6853279169    0.4838866741   -0.4452278149
C        5.1986966713    0.0181833225    1.8602520246
C        1.0590044750   -0.6080423121    0.0866607032
C        3.6489236996   -0.7110058632    0.1371393470
C        4.5360644471   -0.2040318257   -0.8410707614
C        4.0347398417   -0.6617202412    1.4921734501
C        2.3335954269   -1.3137094197   -0.2598973565
C        4.0788836813   -1.6964598499   -2.6696956193
C        3.5100353751   -2.7916062854   -1.7552703761
N        2.2687959027   -2.3284542173   -1.0962624378
N        4.3453788340   -0.4267301164   -2.2054296037
O        4.3231338711   -1.9182637508   -3.8453712704
F        3.3257696535   -1.3032874310    2.4492230107
H       -2.2887004152    1.3401946351    0.6459913463
H       -1.8517304555    0.2089190833   -1.5195660094
H       -0.5766419406    1.2685197134    2.4389156566
H        6.9099260411    1.1473678720    1.1964309617
H        0.2499312541   -0.9957030061   -1.8917539373
H        1.5206117457    0.0984949531    2.1053096289
H        6.3515827118    0.8982367282   -1.1930963795
H        5.4705165229    0.0688489477    2.9078689359
H        3.2886321879   -3.6700758817   -2.3677359670
H        4.2616288298   -3.0826249362   -1.0158938133
H        4.8346398123    0.1363935755   -2.8890247285
30   

C       -1.3836888231    0.7697880371    0.5317955582
C       -1.2454929625   -0.0564411362   -0.5830948919
C       -0.3050224760    0.9429276545    1.3986906102
C        6.0134944926    0.5398610495    0.9952449323
C       -0.0368606442   -0.7195874896   -0.8227335962
C        0.9053281988    0.2819213212    1.1601751020
C        5.7267372421    0.4464564164   -0.3634647899
C        5.1503680891   -0.0470415324    1.9160712428
C        1.0542852004   -0.5929591113    0.0599327243
C        3.6412978568   -0.7031096428    0.1279889030
C        4.5717431584   -0.1993474481   -0.8108607582
C        3.9791767421   -0.6827706480    1.4966308449
C        2.3300522376   -1.2797451729   -0.3125517803
C        4.1329487255   -1.6317040930   -2.6897797518
C        3.5281955777   -2.7392131310   -1.8149844638
N        2.2782586366   -2.2775961224   -1.1711259930
N        4.4159192548   -0.3817325918   -2.1851771497
O        4.3999353558   -1.8282510223   -3.8650281888
F        3.1996962459   -1.2942474552    2.4193033904
H       -2.3206155284    1.2830881854    0.7170011284
H       -2.0748843698   -0.1831909265   -1.2696912839
H       -0.4016992082    1.5997383314    2.2557777923
H        6.9172610384    1.0383866236    1.3300829890
H        0.0303901345   -1.3401562280   -1.7101258823
H        1.7139514105    0.4878486970    1.8457438365
H        6.4280985289    0.8571437412   -1.0806465646
H        5.3855247488   -0.0197308590    2.9734259888
H        3.3098963143   -3.5997843206   -2.4533957836
H        4.2591535268   -3.0581065809   -1.0665096767
H        4.9336742461    0.1893220104   -2.8406271667
30   

C       -1.3959364269    0.7308933531    0.5957828592
C       -1.3379368448   -0.2479745934   -0.3956908424
C       -0.2357910415    1.0821017289    1.2850093284
C        6.0054971834    0.4600393757    1.0702669898
C       -0.1262386659   -0.8839998042   -0.6885068288
C        0.9769444872    0.4480015951    0.9929684464
C        5.7684874964    0.3927555368   -0.2994978697
C        5.0854194296   -0.1021573128    1.9499715793
C        1.0523946150   -0.5748946119    0.0188859514
C        3.6319643123   -0.6998571357    0.0949870440
C        4.6115399164   -0.2088962293   -0.8008861738
C        3.9111389002   -0.6928471480    1.4777068105
C        2.3251406760   -1.2411842249   -0.3933222778
C        4.1878535249   -1.5711521498   -2.7363981291
C        3.5281727152   -2.6843158656   -1.9122794473
N        2.2747767608   -2.2100987350   -1.2848718025
N        4.4983251809   -0.3492009606   -2.1841569711
O        4.4826538292   -1.7406889247   -3.9092064807
F        3.0601350221   -1.2593828304    2.3651799131
H       -2.3351178845    1.2235349400    0.8212589057
H       -2.2331121108   -0.5152918574   -0.9457389791
H       -0.2715526842    1.8564977276    2.0428674819
H        6.9114563838    0.9241375675    1.4461835385
H       -0.1286518871   -1.6295123071   -1.4765720547
H        1.8500128288    0.7906411941    1.5311086976
H        6.5092235313    0.7914667144   -0.9830851679
H        5.2753326191   -0.0871795847    3.0166626619
H        3.3037915483   -3.5189365659   -2.5822436677
H        4.2300725088   -3.0461127131   -1.1555831072
H        5.0534782515    0.2243293065   -2.8059790132
30   

C       -1.3921573462    0.6951801570    0.6659554909
C       -1.3800389665   -0.4103955847   -0.1848335984
C       -0.1886338590    1.1980903009    1.1601926756
C        5.9903133454    0.3835189468    1.1511297420
C       -0.1686602618   -1.0188420997   -0.5330618207
C        1.0232108363    0.5912566871    0.8125740985
C        5.8114165026    0.3296507364   -0.2278511546
C        5.0107866856   -0.1430157638    1.9869928530
C        1.0564389666   -0.5485410046   -0.0233314457
C        3.6261316705   -0.6973844874    0.0657491627
C        4.6576979392   -0.2288468535   -0.7841514211
C        3.8387605037   -0.6908229600    1.4612232736
C        2.3243245580   -1.1945799769   -0.4736934371
C        4.2491095468   -1.5203842022   -2.7753721571
C        3.5208104879   -2.6291596410   -2.0080181823
N        2.2680658891   -2.1301732411   -1.3995551394
N        4.5946624316   -0.3326048347   -2.1739696277
O        4.5751472584   -1.6660660249   -3.9430941548
F        2.9232362724   -1.2123932791    2.3109449142
H       -2.3312225276    1.1664039140    0.9336929675
H       -2.3112601970   -0.7984568779   -0.5817554594
H       -0.1914829857    2.0672494826    1.8081355204
H        6.8944341508    0.8142451502    1.5688755081
H       -0.2046645742   -1.8703425800   -1.2042860054
H        1.9330444886    1.0388722992    1.1922653598
H        6.5936629494    0.7086275827   -0.8754939688
H        5.1504506365   -0.1317695615    3.0614840948
H        3.2853991824   -3.4329432485   -2.7110923519
H        4.1854343563   -3.0419860404   -1.2438547743
H        5.1931398309    0.2355586491   -2.7594826949
