28   

C       -0.9864301896    0.3276405318    0.5217254660
C       -2.0409332643   -0.5895522179    0.6208310931
C       -1.7878434951    1.4789605275    2.5031843758
C       -3.9210815156    0.3917739006    3.5397769427
C       -2.8339443678    0.5554035426    2.5899832351
C       -0.8416025616    1.3739989067    1.4579441829
C       -2.9511022654   -0.4560452012    1.6616708561
C       -4.6570454247   -0.7109892841    3.1426344409
C       -5.7902527125   -1.3931287484    3.7610273493
C        1.2176043109    2.2844760861    2.5629080481
C       -0.2032475270    3.7696742099    1.0968230907
C        0.3123451290    2.3470652750    1.3292559983
N       -4.0551452256   -1.2375637004    1.9771122611
O       -6.1773432009   -2.5078616311    3.4361591648
O       -6.3724318886   -0.7090113919    4.7738571843
H       -0.2745527165    0.2218149110   -0.2887735941
H       -2.1447440901   -1.3924843979   -0.0980153437
H       -1.7103710475    2.2651782640    3.2438486423
H       -4.1130631259    0.9999326422    4.4155262153
H        0.6734032113    2.5783886974    3.4654242288
H        2.0726787667    2.9562438222    2.4385671787
H        1.5962974948    1.2663586223    2.6984291164
H       -0.8001174032    4.1145146965    1.9465120748
H       -0.8254268465    3.7997454728    0.1966667053
H        0.6363179068    4.4580739042    0.9587477825
H        0.9162810500    2.0657640702    0.4599782858
H       -4.3670050650   -2.0780268553    1.4945210796
H       -7.0858094375   -1.2860250664    5.0903283511
28   

C       -0.7191887659    0.1396853204    0.7973097568
C       -1.7288345853   -0.8220878090    0.9347570562
C       -1.8743697360    1.5911756102    2.3631893268
C       -4.0728014776    0.5522982142    3.3072384975
C       -2.8724267562    0.6206341127    2.4923668177
C       -0.7737939477    1.3587292762    1.5067738137
C       -2.7943240239   -0.5599104251    1.7866858719
C       -4.6811426212   -0.6639054536    3.0512502774
C       -5.8041141019   -1.3321243718    3.7081728754
C        1.0248089512    2.6519738587    2.6881134298
C       -0.1997042024    3.6673090655    0.7277085120
C        0.3382446278    2.3751303535    1.3471042747
N       -3.8866242153   -1.3556470093    2.1081895989
O       -5.9340257219   -2.5466154377    3.7764410529
O       -6.6703823328   -0.4929075797    4.3225479922
H        0.1148322699   -0.0670281956    0.1365848105
H       -1.6780532829   -1.7580879368    0.3929795988
H       -1.9509686244    2.5107380145    2.9299751549
H       -4.4115947933    1.2917204922    4.0227861641
H        0.3239159577    3.0859006499    3.4074565537
H        1.8561629255    3.3502640143    2.5496916967
H        1.4227505911    1.7211804493    3.1047628930
H       -0.9495216741    4.1301471540    1.3763749530
H       -0.6598159845    3.4537189398   -0.2423244109
H        0.6158691916    4.3805504657    0.5729961457
H        1.0935892623    1.9681348249    0.6664266058
H       -4.0548718904   -2.3101670119    1.7973798480
H       -7.3325044518   -1.0709991131    4.7340759258
28   

C       -0.7446475374    0.1688262938    0.7513384092
C       -1.7605352021   -0.7880604650    0.8772765809
C       -1.8844602602    1.6035333125    2.3434999581
C       -4.0776410552    0.5582784488    3.2905572827
C       -2.8882235562    0.6374903883    2.4614864844
C       -0.7881771111    1.3768534709    1.4801652403
C       -2.8211293951   -0.5322208973    1.7373429090
C       -4.6936213610   -0.6508097569    3.0216005853
C       -5.7700641126   -1.3410629969    3.7408592179
C        1.0184157170    2.6416290460    2.6820878960
C       -0.1936588304    3.6894135887    0.7311624445
C        0.3327191763    2.3859259848    1.3362164173
N       -3.9123153782   -1.3301797409    2.0580597950
O       -5.7641513957   -2.5341678982    4.0049147043
O       -6.7434715289   -0.5210689028    4.2005108784
H        0.0865216472   -0.0338974491    0.0857992379
H       -1.7166036873   -1.7167816040    0.3225556302
H       -1.9516061043    2.5134670606    2.9267746317
H       -4.3950389944    1.2790292023    4.0342881763
H        0.3197541935    3.0733803518    3.4048871154
H        1.8559376553    3.3344453215    2.5536113301
H        1.4076450308    1.7029050457    3.0890774171
H       -0.9420684546    4.1495732854    1.3833672576
H       -0.6524067447    3.4909869735   -0.2427170810
H        0.6276362439    4.3984028910    0.5876070696
H        1.0867075128    1.9810408598    0.6527827677
H       -4.0698422169   -2.2867564892    1.7493044988
H       -7.3531918897   -1.1000022037    4.6852074261
28   

C       -0.7784989742    0.1823208811    0.7134487071
C       -1.8012007053   -0.7682046250    0.8332062381
C       -1.8947886687    1.6027746446    2.3345643386
C       -4.0827710294    0.5567259811    3.2907124850
C       -2.9049563416    0.6427400532    2.4465591526
C       -0.8067727062    1.3799741937    1.4599447864
C       -2.8531949473   -0.5166568122    1.7051690970
C       -4.7088442116   -0.6439031980    3.0121550669
C       -5.7521873969   -1.3441299480    3.7827636174
C        1.0149035429    2.6165036118    2.6703075286
C       -0.1953975184    3.6952340738    0.7353316483
C        0.3223811899    2.3810087305    1.3240822512
N       -3.9450210608   -1.3135247794    2.0273416134
O       -5.6274556102   -2.4655034200    4.2472446862
O       -6.8406132123   -0.5867203914    4.0502682595
H        0.0466326450   -0.0177749836    0.0396522553
H       -1.7677753666   -1.6897612681    0.2659794690
H       -1.9495239070    2.5038925531    2.9326229668
H       -4.3785121159    1.2627171733    4.0570347931
H        0.3226873952    3.0466521767    3.4002157999
H        1.8578898271    3.3034870838    2.5462339306
H        1.3975559660    1.6702828523    3.0660198565
H       -0.9382930605    4.1536817108    1.3950186120
H       -0.6585853972    3.5112951089   -0.2392828635
H        0.6310208620    4.3993357265    0.5972553251
H        1.0708477604    1.9774668379    0.6338202633
H       -4.1026191086   -2.2667105529    1.7098843940
H       -7.4119169926   -1.1492057518    4.5970233730
28   

C       -0.7908538689    0.1986823379    0.6994295790
C       -1.8157958309   -0.7490460751    0.8221640451
C       -1.8781959799    1.6038990784    2.3531320217
C       -4.0580945481    0.5560275521    3.3260618367
C       -2.8907036072    0.6466185613    2.4679672944
C       -0.8037335939    1.3874777104    1.4603295509
C       -2.8543698180   -0.5038123172    1.7119101702
C       -4.6915295561   -0.6365995712    3.0422404410
C       -5.7436563493   -1.3296083416    3.8250237614
C        1.0375587883    2.6073534934    2.6586746153
C       -0.1944527209    3.7071942507    0.7494594151
C        0.3269237199    2.3861506127    1.3194868345
N       -3.9462243243   -1.2990276049    2.0381991917
O       -5.5533278557   -2.3220947437    4.5044438432
O       -6.9415056813   -0.7022745318    3.8115629531
H        0.0237946483    0.0035396275    0.0115642266
H       -1.7941977650   -1.6635832958    0.2431608769
H       -1.9209518103    2.4982035994    2.9622781085
H       -4.3407732888    1.2558947747    4.1027153134
H        0.3563113480    3.0331259002    3.4013459865
H        1.8810638325    3.2928169573    2.5297955447
H        1.4222675565    1.6564295671    3.0408761880
H       -0.9276615011    4.1615050390    1.4227137604
H       -0.6704837931    3.5335530487   -0.2208518176
H        0.6321459971    4.4102855025    0.6073735156
H        1.0652134718    1.9867475501    0.6159822267
H       -4.1178157889   -2.2412790100    1.6977884811
H       -7.5114861427   -1.2319655675    4.3913057192
28   

C       -0.7409154749    0.1692356091    0.8096621969
C       -1.7429451306   -0.7940613117    0.9852905415
C       -1.7922546391    1.5820405959    2.4807074849
C       -3.9463953113    0.5322985146    3.5148979507
C       -2.7843278138    0.6106047046    2.6464396613
C       -0.7479938080    1.3700435346    1.5513259426
C       -2.7529427268   -0.5516270841    1.9078591371
C       -4.5678453863   -0.6674623433    3.2654296198
C       -5.7607136132   -1.2733499419    3.9280683613
C        1.1326186323    2.6252954930    2.6392249275
C       -0.2263204618    3.7030396949    0.8045551435
C        0.3512395217    2.3915455760    1.3430207909
N       -3.8345567823   -1.3468125610    2.2642338117
O       -5.7207123935   -2.0011817551    4.8993623941
O       -6.9343355774   -0.9422552162    3.3438255650
H        0.0486752270   -0.0208055376    0.0917915890
H       -1.7300750813   -1.7143326018    0.4151892588
H       -1.8323441590    2.4887944918    3.0713635993
H       -4.2577464292    1.2717180802    4.2423086166
H        0.4853203252    3.0345605455    3.4205885730
H        1.9528341085    3.3285137963    2.4642122888
H        1.5580450066    1.6817040359    2.9955525868
H       -0.9255042288    4.1466024822    1.5197861548
H       -0.7562337824    3.5203447833   -0.1357284999
H        0.5781377043    4.4200112930    0.6131506076
H        1.0545502836    2.0063921827    0.5970040397
H       -4.0457826359   -2.2676692137    1.8904835998
H       -7.6149758047   -1.3888964368    3.8716874826
28   

C       -0.7091447753    0.0989674252    0.9149775943
C       -1.6958784718   -0.8700036623    1.1400914244
C       -1.7279247208    1.5385114267    2.5831317440
C       -3.8724605688    0.5156319156    3.6605215502
C       -2.7064826091    0.5626545137    2.7957485862
C       -0.7081070481    1.3161685802    1.6295468108
C       -2.6829356173   -0.6164550720    2.0843090030
C       -4.4942707223   -0.6959417128    3.4531348401
C       -5.8127149268   -1.1594621454    3.9537379226
C        1.2090992438    2.5936733332    2.6136301868
C       -0.2484030825    3.6544936226    0.8461495160
C        0.3667011557    2.3490489788    1.3590356025
N       -3.7652983385   -1.3995202064    2.4650276175
O       -6.0629183745   -1.5071615922    5.0908484677
O       -6.7349401409   -1.2824778759    2.9707028848
H        0.0591596746   -0.0972767127    0.1760000343
H       -1.6940358998   -1.7993895949    0.5848337486
H       -1.7656608428    2.4611987061    3.1487701966
H       -4.2172297403    1.3032091862    4.3192788394
H        0.5959955900    2.9960776973    3.4256170854
H        2.0114723927    3.3058386872    2.3971883756
H        1.6620971078    1.6552384210    2.9489154862
H       -0.9117673422    4.0976539227    1.5948982358
H       -0.8256542090    3.4644382902   -0.0643419279
H        0.5397132594    4.3762350223    0.6097649046
H        1.0343233760    1.9680941030    0.5788643975
H       -4.0319201354   -2.2903796967    2.0555735843
H       -7.5319541476   -1.6131065518    3.4147411556
28   

C       -0.7026086067    0.1240965029    0.9331294678
C       -1.6959415257   -0.8326666023    1.1813579790
C       -1.6877710995    1.5932646510    2.5953820388
C       -3.8328451403    0.6090382497    3.7041335985
C       -2.6733342964    0.6298776349    2.8303072107
C       -0.6811916467    1.3495794015    1.6332232437
C       -2.6694478611   -0.5585578091    2.1339359049
C       -4.4701540256   -0.6024412540    3.5213735214
C       -5.7970469325   -1.0163893167    4.0153400257
C        1.2703366242    2.6043376380    2.5743331227
C       -0.2087934260    3.6824366239    0.8357599653
C        0.3995759230    2.3693137659    1.3375254830
N       -3.7574171087   -1.3242950895    2.5344284538
O       -6.1430820753   -1.0740225870    5.1799780831
O       -6.6002798356   -1.4865181040    3.0304704567
H        0.0548205831   -0.0881374019    0.1873842449
H       -1.7100291659   -1.7683114840    0.6368876479
H       -1.7105681406    2.5230721153    3.1500828115
H       -4.1683925865    1.4122809466    4.3488604955
H        0.6783461635    3.0136869152    3.3984695499
H        2.0763459527    3.3071044438    2.3413368580
H        1.7190846763    1.6607123777    2.9006494369
H       -0.8491787630    4.1364098166    1.5978917205
H       -0.8084069052    3.4990799892   -0.0615403453
H        0.5838617980    4.3928426453    0.5809020325
H        1.0457779634    1.9791253501    0.5440071931
H       -4.0564465280   -2.2052908545    2.1250319876
H       -7.4164866807   -1.7541920752    3.4825296872
28   

C       -0.7185397149    0.1453881611    0.9037252132
C       -1.7220247117   -0.8037977832    1.1403042369
C       -1.6883401428    1.6049371691    2.5833894676
C       -3.8410039543    0.6292100642    3.6840221314
C       -2.6838802750    0.6492297093    2.8068737018
C       -0.6843127563    1.3621700429    1.6184166464
C       -2.6927680672   -0.5310199895    2.0960619545
C       -4.4920259588   -0.5742330348    3.4858596909
C       -5.8049862226   -0.9857437453    3.9977311689
C        1.2761931036    2.5902935170    2.5775805365
C       -0.1866724081    3.6965190386    0.8430122633
C        0.4076513645    2.3736488575    1.3357581074
N       -3.7876584368   -1.2907539935    2.4894546083
O       -6.2134288495   -0.8290928908    5.1335999578
O       -6.5195905809   -1.7063879390    3.0979955595
H        0.0369979442   -0.0660233471    0.1558381198
H       -1.7456047788   -1.7329511278    0.5851436033
H       -1.7011334967    2.5279570621    3.1496609251
H       -4.1645072204    1.4240965518    4.3453080339
H        0.6854248130    2.9990394289    3.4028874976
H        2.0898715177    3.2869524059    2.3530273525
H        1.7145378215    1.6397945580    2.8980199219
H       -0.8260063742    4.1495605651    1.6066009479
H       -0.7843844321    3.5263541821   -0.0581451200
H        0.6133929279    4.4018563840    0.5974147193
H        1.0531139841    1.9839580610    0.5414013912
H       -4.0987230274   -2.1664735832    2.0766544811
H       -7.3379599251   -1.9412107662    3.5645923664
28   

C       -0.7403431630    0.1702158102    0.8629817205
C       -1.7560257487   -0.7710049452    1.0783456445
C       -1.7069697550    1.6167231780    2.5558137284
C       -3.8732862278    0.6455670734    3.6338154792
C       -2.7145161538    0.6690201877    2.7584787933
C       -0.6981523878    1.3762695306    1.5952452916
C       -2.7310547379   -0.5010328153    2.0304777766
C       -4.5359977470   -0.5478606947    3.4122954464
C       -5.8264074028   -0.9786581975    3.9521444807
C        1.2661747199    2.5700637792    2.5905812081
C       -0.1656481328    3.7135179310    0.8542513458
C        0.4085132019    2.3782525695    1.3370405595
N       -3.8337498667   -1.2567751913    2.4094788868
O       -6.2991767223   -0.6495571103    5.0249264598
O       -6.4499836813   -1.8964077245    3.1706959738
H        0.0191199596   -0.0394115084    0.1185798054
H       -1.7847880001   -1.6925716801    0.5109143890
H       -1.7130858794    2.5310414423    3.1361597155
H       -4.1854098750    1.4266876897    4.3168182488
H        0.6715116167    2.9760154230    3.4144635293
H        2.0902140624    3.2597718592    2.3829668452
H        1.6901137420    1.6108399837    2.9043442779
H       -0.8083551831    4.1641370167    1.6164518335
H       -0.7552776049    3.5609659577   -0.0553402401
H        0.6448026418    4.4128126999    0.6260711569
H        1.0581493079    1.9907762438    0.5450086408
H       -4.1430887196   -2.1354251994    2.0008037296
H       -7.2667930084   -2.1119987604    3.6494179942
28   

C       -0.7424711913    0.2164508972    0.8118378112
C       -1.7697006708   -0.7160284209    1.0097463854
C       -1.6911117276    1.6429871162    2.5316589477
C       -3.8616785239    0.6727133667    3.6019861071
C       -2.7097387600    0.7037895294    2.7175975687
C       -0.6855630771    1.4081555956    1.5662885804
C       -2.7413313580   -0.4518968880    1.9669434507
C       -4.5400916984   -0.5068694271    3.3555514157
C       -5.7976079818   -0.9650496595    3.9413779777
C        1.2833790900    2.5726326596    2.5907567937
C       -0.1223271298    3.7447704236    0.8522116942
C        0.4346227926    2.4000099886    1.3281677578
N       -3.8492571079   -1.2042868172    2.3372983052
O       -6.3343521811   -0.5044209199    4.9328328499
O       -6.3297483820   -2.0337475830    3.2951002773
H        0.0149215447    0.0109380878    0.0641894924
H       -1.8089690789   -1.6271697926    0.4263304012
H       -1.6851012796    2.5456400518    3.1300023924
H       -4.1531785906    1.4343717603    4.3155369005
H        0.6865203312    2.9792774000    3.4126790558
H        2.1168219365    3.2546293622    2.3955367716
H        1.6939353235    1.6064319560    2.9008728838
H       -0.7685493158    4.1938250876    1.6123991543
H       -0.7044420779    3.6058814413   -0.0643864579
H        0.6966404348    4.4386370490    0.6383695685
H        1.0875571157    2.0126964627    0.5387756395
H       -4.1548091459   -2.0879522994    1.9361815948
H       -7.1404135352   -2.2396207014    3.7884546110
28   

C       -0.7819191737    0.2344676674    0.7772702569
C       -1.8239802838   -0.6845613559    0.9601145637
C       -1.7179913254    1.6568754802    2.5073607489
C       -3.9008748495    0.7017331899    3.5659915564
C       -2.7512417635    0.7309735714    2.6785079454
C       -0.7109337137    1.4170243346    1.5448249081
C       -2.7965062923   -0.4160178161    1.9151795033
C       -4.5963085683   -0.4641253137    3.3025064698
C       -5.8215452716   -0.9477713425    3.9326791651
C        1.2683499210    2.5402066474    2.5962838960
C       -0.1047017844    3.7504415622    0.8577557523
C        0.4270732170    2.3927633490    1.3253659147
N       -3.9126727185   -1.1597563256    2.2783025004
O       -6.4421167964   -0.3834280649    4.8158495214
O       -6.2440795659   -2.1388345859    3.4365057606
H       -0.0231858152    0.0249661120    0.0320933553
H       -1.8728188804   -1.5897165917    0.3681660465
H       -1.7004001771    2.5519053983    3.1168279803
H       -4.1728552713    1.4494343828    4.3017116956
H        0.6716408832    2.9489504516    3.4172684173
H        2.1141393352    3.2104904746    2.4139889053
H        1.6609887876    1.5648013350    2.9007554205
H       -0.7502608235    4.2022146007    1.6169036057
H       -0.6811955583    3.6292563662   -0.0648793604
H        0.7267776741    4.4333424869    0.6573573206
H        1.0802635309    2.0023522433    0.5377149108
H       -4.2107457282   -2.0525584695    1.8918953972
H       -7.0526760145   -2.3389843881    3.9356192665
28   

C       -0.7994860128    0.2664482283    0.7399870143
C       -1.8510721082   -0.6446460921    0.9071993712
C       -1.7286485742    1.6759069734    2.4843467960
C       -3.9174267811    0.7216335631    3.5317246204
C       -2.7712554996    0.7577627988    2.6400638657
C       -0.7199114659    1.4382651075    1.5229990807
C       -2.8246560182   -0.3787877043    1.8619305471
C       -4.6235517380   -0.4336223820    3.2503700097
C       -5.8116275527   -0.9527619262    3.9237487212
C        1.2641646667    2.5281351220    2.6014422554
C       -0.0832863718    3.7718179605    0.8664827982
C        0.4304719286    2.4036076823    1.3229363799
N       -3.9442385686   -1.1209381644    2.2175998592
O       -6.5321557814   -0.3307616817    4.6834922571
O       -6.1005623373   -2.2349958005    3.5841064684
H       -0.0392461055    0.0584266151   -0.0040691381
H       -1.9052777068   -1.5426813527    0.3049625074
H       -1.7035773811    2.5618341170    3.1067114126
H       -4.1728502603    1.4516281904    4.2907484854
H        0.6663111045    2.9349629398    3.4225370739
H        2.1187044172    3.1907435633    2.4323284734
H        1.6437584373    1.5452637667    2.8983781828
H       -0.7297903776    4.2218839101    1.6258465988
H       -0.6540742964    3.6668013533   -0.0616586428
H        0.7568704931    4.4479481471    0.6798245120
H        1.0852754285    2.0146179237    0.5359203098
H       -4.2287023690   -2.0231242673    1.8430841439
H       -6.9065112600   -2.4450024674    4.0834097702
28   

C       -0.8611259426    0.2760556488    0.7108642479
C       -1.9256370219   -0.6223056094    0.8646563455
C       -1.7672087333    1.6694185115    2.4800405409
C       -3.9605413343    0.7219725115    3.5239744369
C       -2.8222701989    0.7634210889    2.6227899439
C       -0.7635481275    1.4334934592    1.5129689740
C       -2.8938767603   -0.3582937010    1.8253493440
C       -4.6860709524   -0.4163111872    3.2232415021
C       -5.8386814728   -0.9680592267    3.9368512601
C        1.2287625654    2.4897058649    2.6133013578
C       -0.0916870001    3.7614810378    0.8779495051
C        0.4016748859    2.3840785673    1.3285995368
N       -4.0195386528   -1.0938759499    2.1753897460
O       -6.6632245739   -0.3301812168    4.5660720401
O       -5.9841460977   -2.3054906907    3.7582713862
H       -0.1045283147    0.0689447316   -0.0371512248
H       -1.9928771071   -1.5100972212    0.2487054021
H       -1.7275863825    2.5435875884    3.1180647828
H       -4.1913956435    1.4317548255    4.3094544035
H        0.6317479115    2.9003491830    3.4330715242
H        2.0934182058    3.1414074168    2.4534086377
H        1.5929720162    1.5000619309    2.9069804743
H       -0.7389518353    4.2135321290    1.6355132410
H       -0.6563374462    3.6698216977   -0.0553516995
H        0.7579930683    4.4286981099    0.7027162358
H        1.0568983459    1.9916715125    0.5436291542
H       -4.2971020814   -2.0004187626    1.8067836749
H       -6.7867167054   -2.5335807551    4.2549474477
28   

C       -0.8958472981    0.3007643552    0.6803678384
C       -1.9754845663   -0.5815801355    0.8209261393
C       -1.7866153026    1.6909622588    2.4596798185
C       -3.9938153491    0.7631082391    3.4915516086
C       -2.8566078106    0.8006027242    2.5892877536
C       -0.7827552853    1.4483342858    1.4944974107
C       -2.9432842410   -0.3113767475    1.7803929830
C       -4.7373286877   -0.3591525146    3.1767644894
C       -5.8680229722   -0.9306431795    3.9184847065
C        1.2198023156    2.4620420062    2.6171814906
C       -0.0673857201    3.7691356552    0.8830849769
C        0.3998133324    2.3802882313    1.3260790958
N       -4.0786629307   -1.0355691774    2.1227349441
O       -6.8039965676   -0.3109462785    4.3891141453
O       -5.8585708186   -2.2868306933    3.9318195942
H       -0.1391244836    0.0883059102   -0.0660228794
H       -2.0537544948   -1.4627369977    0.1968093905
H       -1.7346277090    2.5571286941    3.1076346456
H       -4.2058419157    1.4601535115    4.2934060554
H        0.6244140717    2.8766202423    3.4361433834
H        2.0964701841    3.1001333363    2.4681295672
H        1.5652283057    1.4641752507    2.9056994708
H       -0.7126230921    4.2256574749    1.6397022587
H       -0.6267199737    3.6941724344   -0.0548926802
H        0.7944430999    4.4235420574    0.7192757028
H        1.0538877313    1.9830032362    0.5426029330
H       -4.3522597617   -1.9441794917    1.7571914760
H       -6.6627418198   -2.5341125340    4.4163228732
28   

C       -0.9225930308    0.3168765518    0.6560037190
C       -2.0107887511   -0.5566329737    0.7845863541
C       -1.8016131733    1.6928551332    2.4521363095
C       -4.0162755048    0.7696781885    3.4731167595
C       -2.8801352403    0.8110495223    2.5698178835
C       -0.7992615976    1.4528997876    1.4846403897
C       -2.9766719491   -0.2892326580    1.7467822933
C       -4.7699200906   -0.3396920674    3.1436219910
C       -5.8940696780   -0.9315941741    3.8932503350
C        1.2088811395    2.4380241188    2.6240775357
C       -0.0601149691    3.7716127657    0.8966660626
C        0.3928460903    2.3749209559    1.3293646022
N       -4.1176858610   -1.0084222963    2.0803644140
O       -6.9383429236   -0.3764327842    4.1773857444
O       -5.7256678507   -2.2544804451    4.1336358137
H       -0.1671035657    0.1063593344   -0.0921916847
H       -2.0965673033   -1.4293465991    0.1496920715
H       -1.7415012138    2.5498854486    3.1114085705
H       -4.2164472406    1.4540892832    4.2885776313
H        0.6146703867    2.8515142232    3.4444241790
H        2.0921281657    3.0689203664    2.4834494069
H        1.5437831752    1.4345404825    2.9054398880
H       -0.7046046072    4.2270070943    1.6546041056
H       -0.6161131030    3.7097436917   -0.0442507256
H        0.8081287979    4.4197686625    0.7421795199
H        1.0462957495    1.9783676335    0.5449894039
H       -4.3916584214   -1.9114010125    1.7025468783
H       -6.5352034933   -2.5280215658    4.5941006199
28   

C       -0.9246720801    0.2880040234    0.6435245694
C       -1.9992300324   -0.6038825493    0.7579232377
C       -1.8371804787    1.6343521499    2.4456387137
C       -4.0482813151    0.6699306682    3.4391282235
C       -2.9026449515    0.7347729088    2.5486992896
C       -0.8247641061    1.4184656844    1.4827286160
C       -2.9750543962   -0.3601525449    1.7162955457
C       -4.7772240244   -0.4476294908    3.0966810807
C       -5.9288305161   -1.0575531594    3.8076997447
C        1.1706254431    2.4090836947    2.6359560258
C       -0.1198622437    3.7598958795    0.9378422090
C        0.3529021355    2.3610665976    1.3418868838
N       -4.1080093804   -1.0988022430    2.0332413782
O       -7.0651516508   -0.6275459136    3.8273465415
O       -5.6286841871   -2.2533742028    4.3661926944
H       -0.1615141607    0.0962460991   -0.1019351849
H       -2.0672048759   -1.4720193558    0.1146576230
H       -1.7950298124    2.4869543339    3.1119835689
H       -4.2708920789    1.3503248562    4.2519093117
H        0.5715617633    2.7958660783    3.4657690331
H        2.0440947013    3.0559077201    2.5071700144
H        1.5209800198    1.4049399661    2.8953428359
H       -0.7673375253    4.1924917116    1.7064675468
H       -0.6782294005    3.7090245841   -0.0023289294
H        0.7394050632    4.4221240339    0.7931261342
H        1.0097685644    1.9895115918    0.5481699442
H       -4.3739775428   -1.9902511307    1.6246459258
H       -6.4573153454   -2.5562408847    4.7703694178
28   

C       -0.8217962739    0.2400542938    0.7080050530
C       -1.8624537422   -0.6893306597    0.8349897569
C       -1.7635745283    1.5568307005    2.5171150117
C       -3.9601724292    0.5444208695    3.4978403269
C       -2.7970236995    0.6217172101    2.6307390117
C       -0.7540431297    1.3752448024    1.5439516679
C       -2.8371040796   -0.4778500526    1.8021169260
C       -4.6512399243   -0.5942563146    3.1606607866
C       -5.9479945077   -1.1089150896    3.6923408626
C        1.2361654413    2.4194873433    2.6491033293
C       -0.1534840226    3.7538733340    1.0173710671
C        0.3808896307    2.3654029535    1.3805933750
N       -3.9578250659   -1.2386892593    2.1092316144
O       -7.0409112536   -0.8423953158    3.2349022983
O       -5.8117749769   -1.9273974931    4.7599937402
H       -0.0626374392    0.0766679047   -0.0482291183
H       -1.9100862999   -1.5565468108    0.1886557688
H       -1.7494538426    2.4160543861    3.1760685613
H       -4.2459139870    1.2614176268    4.2574945393
H        0.6479632050    2.7657304618    3.5042610502
H        2.0800051947    3.1018826506    2.5073003287
H        1.6318846365    1.4244338661    2.8762455608
H       -0.7882443367    4.1521739865    1.8145275508
H       -0.7414926018    3.6996483464    0.0956186059
H        0.6772425112    4.4478580574    0.8555765513
H        1.0243829717    2.0326866389    0.5591639149
H       -4.2438556974   -2.0939247401    1.6412131732
H       -6.7168096874   -2.1770594267    5.0048994351
28   

C       -0.7439208770    0.1572878576    0.7589804549
C       -1.7460338120   -0.8104598946    0.9106141896
C       -1.6912247593    1.4398045600    2.5891293997
C       -3.8513081735    0.3746548659    3.5871694686
C       -2.6873641116    0.4681731481    2.7247173061
C       -0.6992228994    1.2956435050    1.5923576276
C       -2.7061628305   -0.6339629765    1.8992621347
C       -4.5177212593   -0.7890634660    3.2618941724
C       -5.8931500848   -1.1982705473    3.6370293352
C        1.2926308576    2.4020263435    2.6248764917
C       -0.2159161894    3.7073320177    1.0779221287
C        0.3858894575    2.3342679296    1.3939620637
N       -3.8084684873   -1.4199693703    2.2124620258
O       -6.8444208643   -1.1888765178    2.8768579809
O       -6.0403169776   -1.4929577916    4.9485449604
H        0.0002041050    0.0239536629   -0.0178024124
H       -1.7804574898   -1.6759019853    0.2610647627
H       -1.6985581740    2.3030947010    3.2428449381
H       -4.1830520641    1.1176676695    4.3018652011
H        0.7278034425    2.7086575861    3.5104339377
H        2.1011789968    3.1209408169    2.4599429198
H        1.7374190247    1.4202235701    2.8158934775
H       -0.8267150237    4.0713614217    1.9093958060
H       -0.8436980833    3.6449485880    0.1833085562
H        0.5803555543    4.4342307136    0.8894006601
H        1.0041590641    2.0401075980    0.5391371149
H       -4.1146458676   -2.2441546970    1.7024279708
H       -6.9828551397   -1.6956465504    5.0585043634
28   

C       -0.7579421804    0.1641611057    0.7396949026
C       -1.7583567040   -0.8059157120    0.8876177222
C       -1.6846072282    1.4183046334    2.5998625681
C       -3.8344114143    0.3388104427    3.6042226102
C       -2.6790877885    0.4445102742    2.7316998966
C       -0.7040771178    1.2897772831    1.5897043373
C       -2.7072942396   -0.6447542485    1.8895318896
C       -4.5059452877   -0.8219427994    3.2684075845
C       -5.8724523689   -1.2385256555    3.6315096434
C        1.2965765472    2.3858081095    2.6170230761
C       -0.2290757642    3.7081766248    1.1016530215
C        0.3779034377    2.3322016240    1.3942897536
N       -3.8073504316   -1.4343802310    2.2013734089
O       -6.7562650720   -1.4747885331    2.8241463212
O       -6.1182745553   -1.2205592817    4.9616026302
H       -0.0227037950    0.0429117878   -0.0474552339
H       -1.8004679696   -1.6612182489    0.2251870857
H       -1.6849394992    2.2717169810    3.2664740197
H       -4.1605203492    1.0714986695    4.3322041603
H        0.7401537650    2.6806553520    3.5118491137
H        2.1025573311    3.1078365232    2.4531282299
H        1.7444333741    1.4023062075    2.7913739776
H       -0.8324666852    4.0604138303    1.9435588986
H       -0.8653629865    3.6561702020    0.2123955807
H        0.5641611390    4.4388119540    0.9148010758
H        0.9882081141    2.0498655257    0.5298104756
H       -4.1307749030   -2.2420594040    1.6748467359
H       -7.0537188615   -1.4634510736    5.0491610110
28   

C       -0.7797353071    0.1994892476    0.7074152261
C       -1.7853579454   -0.7663972108    0.8463649644
C       -1.6867329109    1.4299929968    2.5930852169
C       -3.8314042601    0.3422325033    3.6013901004
C       -2.6862606052    0.4602411492    2.7164796697
C       -0.7133568021    1.3111139243    1.5747660869
C       -2.7266016522   -0.6152373358    1.8569287375
C       -4.5104849702   -0.8114995654    3.2529426883
C       -5.8466392577   -1.2737979431    3.6447136256
C        1.2973676594    2.3808104016    2.6116576803
C       -0.2233621436    3.7313695576    1.1161785194
C        0.3755537656    2.3482464708    1.3904109735
N       -3.8258794985   -1.4060723568    2.1674967381
O       -6.6656075215   -1.7429806067    2.8685574269
O       -6.1574041462   -1.0353118344    4.9399901683
H       -0.0496262898    0.0854075631   -0.0855587339
H       -1.8363517509   -1.6118525266    0.1719962015
H       -1.6763815375    2.2719575699    3.2740300687
H       -4.1416067230    1.0567204493    4.3541451030
H        0.7452200643    2.6687855989    3.5113455380
H        2.1079433841    3.0991963669    2.4545329201
H        1.7388977633    1.3922633700    2.7731815880
H       -0.8231937369    4.0764317394    1.9635923033
H       -0.8615298685    3.6942845083    0.2275225812
H        0.5740168701    4.4594065619    0.9370349233
H        0.9822705888    2.0725571089    0.5212723271
H       -4.1575852972   -2.2098151775    1.6391479423
H       -7.0704162408   -1.3480564990    5.0422305572
28   

C       -0.8191412339    0.2272798334    0.6715786481
C       -1.8334232679   -0.7304161643    0.8032395939
C       -1.7038804864    1.4415346091    2.5784260575
C       -3.8450890314    0.3524985424    3.5947048168
C       -2.7118432847    0.4796941746    2.6951717115
C       -0.7369675440    1.3263342675    1.5534607008
C       -2.7672352069   -0.5837427753    1.8212130103
C       -4.5345213537   -0.7925578969    3.2365307664
C       -5.8312240936   -1.3082785185    3.6743937770
C        1.2859690923    2.3634040822    2.6014534717
C       -0.2198967362    3.7442831744    1.1185286360
C        0.3639797179    2.3524589744    1.3797406601
N       -3.8663924391   -1.3734412875    2.1341204552
O       -6.5694137211   -1.9889497970    2.9756171731
O       -6.2046953714   -0.9015003782    4.9101983143
H       -0.0935717958    0.1156996364   -0.1259035723
H       -1.8951544734   -1.5677117358    0.1196292183
H       -1.6799575907    2.2729170535    3.2719241109
H       -4.1330555970    1.0473620751    4.3743037987
H        0.7373075791    2.6497578980    3.5037757201
H        2.1048203864    3.0737587885    2.4508282848
H        1.7161429791    1.3684657288    2.7542131226
H       -0.8168990571    4.0870778000    1.9688686569
H       -0.8576477344    3.7224093976    0.2290760356
H        0.5853065063    4.4655147308    0.9470878744
H        0.9680730576    2.0781554878    0.5083384619
H       -4.1998175189   -2.1830247902    1.6150629021
H       -7.0835705390   -1.2893504978    5.0484063893
28   

C       -0.8908734451    0.2300977365    0.6208648006
C       -1.9188699129   -0.7134183320    0.7474852445
C       -1.7422718039    1.4321051777    2.5507071233
C       -3.8808115058    0.3506523709    3.5824137867
C       -2.7634872069    0.4838178883    2.6633759099
C       -0.7848729954    1.3155518231    1.5169114459
C       -2.8420915328   -0.5664242270    1.7749219424
C       -4.5873763992   -0.7815025797    3.2157750104
C       -5.8371037687   -1.3473621823    3.7156515751
C        1.2532112344    2.3147246530    2.5758934182
C       -0.2276554285    3.7250710324    1.0953547351
C        0.3339330133    2.3235389918    1.3518066432
N       -3.9432575576   -1.3506574947    2.0936546995
O       -6.4818163694   -2.2064048139    3.1287967693
O       -6.2681296069   -0.8125062296    4.8822380843
H       -0.1720625202    0.1169860491   -0.1824997014
H       -1.9972020507   -1.5420427681    0.0550531078
H       -1.6982888093    2.2519858409    3.2568095491
H       -4.1368772244    1.0229423887    4.3924189321
H        0.7078635473    2.6074811850    3.4781433951
H        2.0842826991    3.0116606881    2.4295169575
H        1.6663332714    1.3122237802    2.7263200681
H       -0.8229339812    4.0720462612    1.9452358973
H       -0.8622519904    3.7169757113    0.2034204172
H        0.5889703974    4.4348951611    0.9305524450
H        0.9361850217    2.0432371875    0.4810383527
H       -4.2759734906   -2.1706021552    1.5901491856
H       -7.1027074157   -1.2687510088    5.0754414474
28   

C       -0.9242981902    0.2957632350    0.5687669775
C       -1.9643004796   -0.6367167194    0.6774075624
C       -1.7570472153    1.4679613703    2.5249650028
C       -3.8931746733    0.3776671001    3.5531632264
C       -2.7894559347    0.5299501534    2.6205540098
C       -0.8026225094    1.3604747633    1.4874097205
C       -2.8834675790   -0.4997279845    1.7098119931
C       -4.6110752842   -0.7411827637    3.1681267914
C       -5.8023309394   -1.3745190379    3.7238753191
C        1.2434413243    2.3144849967    2.5756824044
C       -0.2071457589    3.7656576865    1.1045744081
C        0.3328209045    2.3532173013    1.3453705658
N       -3.9849729708   -1.2852652356    2.0236562922
O       -6.3227331952   -2.3789757096    3.2558742072
O       -6.3065837552   -0.7606171340    4.8201214051
H       -0.2068650167    0.1888044841   -0.2366682437
H       -2.0524081782   -1.4517029626   -0.0298829243
H       -1.6990276701    2.2699957326    3.2502940800
H       -4.1200567097    1.0162631078    4.3983812829
H        0.6968250092    2.6040325688    3.4781783821
H        2.0859927639    3.0005032576    2.4440075890
H        1.6404523309    1.3040196318    2.7159388650
H       -0.8047046776    4.1081943265    1.9546790268
H       -0.8345248840    3.7787628224    0.2076178684
H        0.6204683225    4.4663505296    0.9564571564
H        0.9375648594    2.0760034514    0.4753413975
H       -4.3057215106   -2.1159645010    1.5298940121
H       -7.0822978315   -1.2878550995    5.0697343698
