66

C     -9.52587   -0.96245    7.38677
C     -7.24255   -0.49922    6.66851
C     -5.86941   -0.71962    6.72504
C     -6.22342   -2.43063    8.40862
C     -8.11844   -1.23513    7.48186
C     -7.59500   -2.20467    8.36140
C     -5.36402   -1.69304    7.58911
C     -3.26302   -1.93104    8.87770
C     -3.10808   -2.19817    6.57304
C      4.93611   -0.24189   -0.50269
C      4.68502    0.21560    1.89236
C      3.58535   -1.77107    0.98560
C      3.42450    0.51499    2.69732
C      2.34666   -1.43376    1.81707
C     -1.80122   -2.22026    8.53830
C     -1.38666   -3.54352    9.20378
C     -0.91905   -1.05336    9.00366
C      4.97839   -1.53362   -3.95583
C      4.60506   -1.17600   -1.67545
C     -0.13597   -1.35483    5.55245
C      0.99995   -1.70036    4.58480
C     -0.69382   -2.60804    6.23687
C      1.56010   -0.45110    3.89879
C     -8.51779   -3.00636    9.25269
N    -10.65638   -0.70666    7.27558
N     -3.96336   -1.92765    7.67250
N     -1.85902   -2.33499    7.07397
N      4.35290   -0.56383    0.70163
N      2.71665   -0.72334    3.04213
O     -3.72604   -1.74582    9.98599
O      5.66469    0.73319   -0.64352
O      5.23964   -0.70534   -2.83530
F     -7.83523   -3.89714   10.00850
F     -9.20857   -2.20824   10.09899
F     -9.42341   -3.70556    8.52974
S     -3.58322   -2.34898    4.98987
H     -7.64780    0.25061    5.99734
H     -5.19692   -0.14703    6.09806
H     -5.82131   -3.17387    9.08501
H      5.17078    1.13564    1.56880
H      5.39009   -0.35176    2.51591
H      4.20847   -2.48494    1.54358
H      3.26750   -2.25248    0.06148
H      3.70864    1.02498    3.62368
H      2.77929    1.20232    2.11791
H      1.65014   -0.83296    1.19993
H      1.84167   -2.36834    2.07484
H     -0.33343   -3.76281    9.00799
H     -1.99221   -4.37434    8.83072
H     -1.52802   -3.46243   10.28423
H      0.13191   -1.25637    8.77887
H     -1.02697   -0.92814   10.08382
H     -1.20947   -0.12117    8.51176
H      5.50656   -1.09422   -4.80450
H      3.90227   -1.57819   -4.18580
H      5.34492   -2.55979   -3.79611
H      3.51165   -1.21751   -1.81841
H      4.93987   -2.19977   -1.43458
H     -0.95111   -0.86621    5.00950
H      0.21708   -0.64824    6.31254
H      1.81896   -2.20302    5.11411
H      0.62033   -2.40949    3.84063
H      0.06794   -3.07065    6.87000
H     -0.98992   -3.34305    5.48334
H      0.75204    0.05675    3.33729
H      1.88865    0.25081    4.67399
