42

C     -1.70941   -0.54854    2.16758
C      0.23202    2.62624   -2.38906
C      0.46874    1.25447   -2.13718
C      0.10921    3.56980   -1.36247
C      0.53150    1.73574    0.18860
C      0.61673    0.78584   -0.83054
C      0.62616    1.52826    1.59559
C      0.25484    3.09962   -0.05216
C      0.38718    2.73879    2.20259
C     -1.34118   -3.77223   -1.45207
C      0.97359    0.15380    2.07475
C     -0.03970   -1.61159   -1.31910
C     -1.55556   -2.32211    0.56214
C      0.80541   -0.66804   -0.41719
C     -0.59427   -2.80797   -0.54607
C      0.46118   -0.91355    1.08622
C      0.30764    3.10872    3.64720
C     -2.39533   -5.89026   -1.54586
N     -2.34613   -0.06113    3.02198
N      0.17877    3.69714    1.19842
N     -1.00625   -1.09943    1.18113
O     -1.64979   -3.56312   -2.60813
O     -1.64394   -4.91474   -0.78996
H      0.12391    2.95655   -3.41890
H      0.51639    0.57054   -2.98071
H     -0.09933    4.61279   -1.58724
H      2.06395    0.03272    2.12413
H      0.58944   -0.06139    3.07633
H     -0.88518   -1.05790   -1.73364
H      0.54878   -1.95701   -2.17230
H     -2.52914   -2.07267    0.12772
H     -1.70527   -3.11003    1.30934
H      1.86501   -0.93550   -0.52982
H      0.21656   -3.38041   -0.08304
H      0.93150   -1.85918    1.38623
H      1.07806    3.83772    3.92761
H     -0.67015    3.53849    3.89536
H      0.44051    2.22031    4.26796
H     -2.55660   -6.72437   -0.86355
H     -1.82651   -6.21112   -2.42139
H     -3.34820   -5.46652   -1.87072
H     -0.08136    4.65700    1.37494
