36

C     -1.03486   -3.34870   -0.57086
C     -1.09712   -4.10978   -1.73870
C      0.73849   -2.81078   -2.65428
C     -1.04871   -0.40370    5.02731
C      0.58385   -1.34818    4.09454
C     -0.10440   -2.31240   -0.39016
C     -0.20422   -3.82567   -2.76474
C      0.75399   -2.08484   -1.47049
C     -0.00251    1.08516    0.10211
C     -0.47264    1.07684    1.53229
C     -0.78367   -0.10403    0.63968
C     -3.52628    0.22287    1.41341
C     -0.67284   -2.22243    2.06626
C     -0.05130   -1.44901    0.88058
N      0.28960   -0.63407    5.17388
N     -1.58980   -0.92960    3.93470
N     -0.52318   -1.53734    3.33784
O      1.30377   -1.23876    1.29697
F     -0.24768   -4.55053   -3.90628
F      1.69199   -1.08784   -1.39293
S     -2.47883   -0.29837    0.00537
H     -1.75262   -3.56636    0.20953
H     -1.82761   -4.90293   -1.85881
H      1.43459   -2.58720   -3.45523
H     -1.63978    0.15534    5.74135
H      1.55565   -1.72676    3.81264
H     -0.52311    1.71283   -0.61239
H      1.06136    0.98238   -0.08161
H      0.27606    0.91780    2.30061
H     -1.29089    1.72498    1.82340
H     -4.53816   -0.11052    1.16668
H     -3.53501    1.31027    1.52099
H     -3.20062   -0.24151    2.34467
H     -1.74153   -2.36088    1.91990
H     -0.18819   -3.19943    2.13483
H      1.81856   -0.91658    0.54105
