65

C      3.18212  -10.71443    6.52202
C      1.76540   -8.73213    6.50669
C      1.31561   -7.54950    5.92466
C      2.81022   -7.91207    4.04783
C      2.74641   -9.50908    5.87275
C      3.26660   -9.08884    4.63038
C      1.84363   -7.13947    4.70000
C      0.01183   -5.68370    3.89049
C      2.17507   -4.86372    3.65832
C      7.67445    0.53858    1.33711
C      6.14327   -1.25322    2.03930
C      5.28622    0.44479    0.51857
C      4.97414   -0.98331    2.98349
C      4.12775    0.70202    1.48550
C     -0.07360   -4.32744    3.19114
C     -0.92932   -3.36417    4.02524
C     -0.66053   -4.52986    1.78383
C      9.53960    3.61003   -0.19856
C      7.90007    1.80590    0.51021
C      9.33129    2.33548    0.62607
C      2.08241   -1.60636    3.68753
C      1.80564   -2.65601    2.60459
C      2.63238   -0.30619    3.09057
C      4.31397   -9.91850    3.92029
N      3.50301  -11.68085    7.08670
N      1.36463   -5.94335    4.09702
N      1.34145   -3.93233    3.14363
N      6.44368   -0.06688    1.24020
N      3.80099   -0.51136    2.23433
O     -0.92079   -6.40076    4.19717
O      8.56618    0.07704    2.05249
F      4.67090   -9.36914    2.73704
F      5.43820  -10.04229    4.66214
F      3.86336  -11.16914    3.66097
S      3.82862   -4.78859    3.78933
H      1.36406   -9.05979    7.45985
H      0.55568   -6.95247    6.41574
H      3.20617   -7.59057    3.09383
H      7.03800   -1.52174    2.59907
H      5.88218   -2.08160    1.36814
H      4.96995   -0.29842   -0.22614
H      5.53459    1.36370   -0.00923
H      4.72550   -1.91545    3.49549
H      5.28248   -0.24248    3.74559
H      4.40252    1.53647    2.16032
H      3.24573    1.01234    0.91382
H     -1.01418   -2.39552    3.52471
H     -0.49520   -3.21011    5.01682
H     -1.93111   -3.78445    4.14286
H     -0.75448   -3.57229    1.26411
H     -1.65330   -4.97867    1.86715
H     -0.02438   -5.19007    1.18780
H      8.87248    4.41518    0.13254
H      9.34397    3.43586   -1.26354
H     10.56824    3.97419   -0.10661
H      7.19305    2.57992    0.83732
H      7.66251    1.60376   -0.54198
H     10.02895    1.55666    0.30321
H      9.55999    2.52246    1.67936
H      2.77781   -2.02764    4.41754
H      1.16132   -1.37027    4.23051
H      1.04471   -2.29401    1.90742
H      2.71417   -2.83700    2.02873
H      2.84734    0.40254    3.91305
H      1.85327    0.15848    2.47304
