65

C     -2.57921   -2.11771   -4.47675
C     -0.13692   -2.37710   -4.28565
C     -1.43462   -3.59934   -5.94411
C     -1.33955   -1.79372   -3.86376
C     -2.63889   -3.02229   -5.52793
C     -1.23335   -4.56818   -6.97154
C     -0.19819   -3.29694   -5.34107
C      0.11642   -4.84885   -6.98922
C     -4.87610   -1.77470  -10.39840
C     -2.42327   -5.04577   -7.75588
C     -4.18312   -2.43068   -7.42295
C     -5.29384   -4.33942   -8.69202
C     -3.16461    0.27463   -0.96543
C     -2.33138    1.39438   -1.58539
C     -3.87156   -3.43756   -6.29989
C     -1.29080   -0.79901   -2.73272
C     -3.71251   -4.86738   -6.88951
C     -5.41262   -2.88187   -8.21843
C      0.90971   -5.77646   -7.85129
C     -3.47098    0.37830  -12.37998
C     -7.81369   -0.76895  -11.82565
C     -5.05159   -6.62588   -7.94726
C     -4.49183   -0.74794  -12.57123
C     -6.53905   -0.11319  -11.27586
N      0.74492   -4.06979   -6.00269
N     -4.96674   -5.22150   -7.57032
N     -5.72749   -1.95812   -9.31778
N     -5.35025   -0.95170  -11.40211
O     -3.75485   -2.29489  -10.46135
S     -2.30548   -1.32409   -1.24795
S     -1.87304    0.86530   -3.27022
H     -3.48301   -1.64698   -4.09897
H      0.80028   -2.11620   -3.79896
H     -2.51844   -4.47650   -8.68731
H     -2.32166   -6.09925   -8.03751
H     -4.37072   -1.44040   -6.99433
H     -3.32522   -2.33565   -8.09064
H     -6.26292   -4.65698   -9.09674
H     -4.56475   -4.39669   -9.51246
H     -3.26831    0.41262    0.11537
H     -4.15839    0.24190   -1.41870
H     -2.90703    2.32149   -1.67064
H     -1.43411    1.58961   -0.99067
H     -4.73304   -3.47733   -5.62219
H     -0.26265   -0.69900   -2.38093
H     -3.62018   -5.55285   -6.03812
H     -6.27423   -2.83225   -7.54238
H      1.62059   -5.23446   -8.48782
H      1.48130   -6.50010   -7.25641
H      0.24036   -6.33740   -8.50764
H     -3.96333    1.33270  -12.16152
H     -2.80034    0.13505  -11.55214
H     -2.87078    0.50905  -13.28757
H     -7.69035   -1.02630  -12.88236
H     -8.05520   -1.69369  -11.29012
H     -8.66904   -0.09016  -11.73531
H     -4.79857   -7.25338   -7.08611
H     -4.38882   -6.90922   -8.78467
H     -6.07950   -6.86168   -8.24491
H     -3.97286   -1.68583  -12.77422
H     -5.14312   -0.53681  -13.42712
H     -6.67178    0.17608  -10.22880
H     -6.34986    0.81802  -11.81999
H      1.73229   -4.10270   -5.79292
H     -6.71372   -1.82528   -9.48933
