67

C      8.49666   -5.05998    0.43578
C      7.30858   -4.33104    0.51290
C      4.76123   -2.67251   -1.62157
C      5.24037   -2.12446    0.67481
C      3.58445   -1.92753   -1.55335
C      4.06242   -1.38992    0.74821
C      9.28300   -5.03809   -0.71752
C      7.64728   -3.57070   -1.75224
C      2.20016    0.80754   -2.40627
C     -0.51233    0.53758   -2.95471
C      5.61529   -2.78301   -0.51230
C      6.87167   -3.56583   -0.58186
C      3.21452   -1.27107   -0.36746
C      1.37388    0.08182   -1.53069
C      0.00528   -0.05340   -1.79811
C      8.84455   -4.29314   -1.82225
C      1.67050    1.42122   -3.54200
C      0.29252    1.26862   -3.82667
C      1.95129   -0.49378   -0.29024
C      0.17054    1.27221    2.09253
C     -0.84707   -0.84863   -0.84654
C     -1.02580   -0.16135    0.51454
C     -1.61027   -1.13255    1.54734
C      1.35228    2.20202    4.01734
C      3.76456    2.42609   -4.11096
C      0.13381    1.42000   -6.19817
C      8.58923   -6.57642   -4.08128
N      1.43641   -0.34060    0.89079
N      0.25724    0.43330    0.96880
N      9.63009   -4.22656   -3.00980
N      1.35550    1.48709    2.74961
O     -0.88965    1.82101    2.40258
O     10.59694   -5.16310   -5.12091
O     10.95375   -6.41609   -2.91773
O      2.39403    2.18482   -4.41800
O     -0.29661    1.87752   -4.90637
S     10.11337   -5.63821   -3.82463
H      8.82342   -5.64774    1.28937
H      6.70577   -4.37448    1.41502
H      5.00054   -3.20185   -2.53995
H      5.89598   -2.16751    1.54000
H      2.93561   -1.87305   -2.42174
H      3.78957   -0.89106    1.67184
H     10.21885   -5.58247   -0.77169
H      7.33277   -2.97659   -2.60757
H      3.25234    0.90916   -2.16849
H     -1.56740    0.44840   -3.19963
H     -1.84014   -1.02331   -1.27004
H     -0.39577   -1.83583   -0.68860
H     -1.69637    0.69188    0.39927
H     -0.91332   -1.95574    1.73790
H     -2.55003   -1.55767    1.17722
H     -1.81686   -0.61452    2.48588
H      2.37615    2.50016    4.25828
H      0.95053    1.59757    4.84148
H      0.73517    3.09633    3.92128
H      4.13630    3.07721   -4.90297
H      4.34412    1.49450   -4.10364
H      3.87136    2.93117   -3.14359
H     -0.47674    1.95945   -6.92450
H     -0.04546    0.34216   -6.29935
H      1.19117    1.63926   -6.36687
H      8.87806   -7.51937   -4.54857
H      8.12277   -6.75790   -3.11228
H      7.93435   -6.00498   -4.74022
H      9.32583   -3.53234   -3.68872
H      2.07805    0.79940    2.57483
