66

C     -1.22675   -1.90431   -5.12666
C     -0.10013   -3.46639   -3.59355
C     -0.58637   -4.06742   -5.90003
C     -0.68919   -2.22224   -3.85027
C     -1.17222   -2.82521   -6.16005
C     -0.43748   -5.18213   -6.77439
C     -0.05691   -4.39857   -4.63942
C      0.18206   -6.18139   -6.04983
C      1.29976   -2.10592  -10.88381
C     -0.93765   -5.07088   -8.19045
C     -0.53772   -1.96393   -8.44225
C     -1.56066   -3.08556  -10.51488
C     -2.15044    1.14701   -2.24351
C     -0.65767    1.36581   -2.00752
C     -1.63651   -2.61929   -7.58692
C     -0.73772   -1.20068   -2.74133
C     -0.95922   -1.80386   -9.91181
C     -2.04476   -3.98862   -8.18817
C      0.59691   -7.56265   -6.44043
C      4.56177   -2.18176  -10.43457
C      1.83769    0.12102  -13.27960
C     -3.21745   -4.91519  -10.24062
C      3.60552   -2.28523  -11.62388
C      2.40764   -0.09052  -11.87267
N      0.41437   -5.69805   -4.75829
N      0.11711   -1.35876  -10.79463
N      2.38125   -1.48899  -11.43480
N     -2.58479   -3.71569   -9.59788
O      1.32044   -3.28848  -10.49999
S     -2.47962   -0.66041   -2.33898
S      0.24932    0.29164   -3.17181
H     -1.68188   -0.92761   -5.26586
H      0.30315   -3.68749   -2.60860
H     -0.12688   -4.78980   -8.87142
H     -1.34947   -6.02281   -8.54002
H     -0.30661   -0.97763   -8.02943
H      0.37340   -2.56019   -8.38466
H     -2.06432   -2.86285  -11.45830
H     -0.77799   -3.81927  -10.68842
H     -2.74084    1.54984   -1.41551
H     -2.46714    1.62404   -3.17374
H     -0.36792    2.40086   -2.21138
H     -0.38045    1.11909   -0.97914
H     -2.52863   -1.97446   -7.58636
H     -0.32180   -1.63420   -1.83031
H     -1.72819   -1.02262   -9.96388
H     -2.90692   -4.37022   -7.63288
H      1.68582   -7.68227   -6.40106
H      0.15447   -8.31910   -5.78218
H      0.27888   -7.78019   -7.46257
H      4.86025   -1.14462  -10.24817
H      4.08683   -2.57406   -9.53124
H      5.46910   -2.76312  -10.62754
H      2.39633   -0.46884  -14.01227
H      0.78781   -0.18194  -13.33660
H      1.90897    1.17525  -13.56566
H     -2.43682   -5.62197  -10.51436
H     -3.91055   -5.37308   -9.53416
H     -3.75055   -4.59222  -11.13548
H      3.31030   -3.32242  -11.78276
H      4.08629   -1.93189  -12.54152
H      1.89617    0.54485  -11.13967
H      3.45126    0.23251  -11.84351
H      0.85104   -6.23573   -4.02148
H      0.17774   -0.35873  -10.92351
H     -3.33174   -3.02644   -9.46219
