22   

C        1.8246529055   -0.2110092609    0.1153639038
C        0.5378272571   -0.4647938740    0.5831221906
C        2.9237209456   -0.4453812503    0.9443041345
C        0.3549597545   -0.9575417361    1.8759709284
C        2.7602446371   -0.9282505904    2.2537354472
C        1.4487411772   -1.1964748442    2.7260969777
C        3.9531985060   -1.1290921218    3.0993932345
C        5.2694877430   -0.8026800157    2.8750549637
C        1.1969939703   -1.7575666044    4.1056371851
C        6.3746217888   -1.6108833429    2.2243155503
H        1.9730295527    0.1703549760   -0.8883592289
H       -0.3192867770   -0.2827248253   -0.0551768385
H        3.9188496196   -0.2388532509    0.5686545075
H       -0.6527448939   -1.1571235318    2.2214554263
H        3.7271837811   -1.2986149377    4.1443013597
H        5.7059884880   -0.3681732444    3.7681719492
H        1.7814256156   -2.6710250706    4.2535131634
H        1.4753673351   -1.0234515682    4.8676466889
H        0.1405939454   -2.0084270883    4.2400314069
H        7.1802931231   -1.8049829688    2.9388917353
H        5.9816188089   -2.5688135322    1.8703601108
H        6.7837597642   -1.0632083097    1.3704468916
22   

C        1.9192558352   -0.2841268015    0.1164034973
C        0.6178538792   -0.5043995397    0.5596596394
C        2.9928130134   -0.4828605438    0.9870132339
C        0.3948483181   -0.9275530041    1.8705391952
C        2.7888643338   -0.8920198415    2.3165916628
C        1.4621632216   -1.1263639766    2.7634753523
C        3.9509288606   -1.0579426601    3.2115149556
C        5.2683485942   -0.7942056483    2.9670551580
C        1.1686026217   -1.6287551378    4.1572847097
C        6.2419611261   -1.5944965357    2.1295795955
H        2.0987553984    0.0442762600   -0.9008627985
H       -0.2193433518   -0.3515428511   -0.1118745310
H        3.9979140641   -0.2997768522    0.6269890385
H       -0.6233750344   -1.1067074939    2.1957755462
H        3.7007274967   -1.1364460400    4.2619281666
H        5.7841089720   -0.4450027882    3.8552130162
H        1.7632288816   -2.5231510161    4.3683902693
H        1.4045640256   -0.8559344035    4.8947119216
H        0.1129969134   -1.8963147937    4.2628330412
H        7.0967585796   -1.9096150933    2.7356127004
H        5.7502775858   -2.4853192867    1.7266208858
H        6.6048941820   -0.9865294644    1.2958050777
22   

C        1.9925381319   -0.3589493663    0.1196746303
C        0.6818417719   -0.5519340726    0.5466292268
C        3.0472325841   -0.5091261902    1.0223943521
C        0.4305907968   -0.8976415060    1.8745908324
C        2.8154364435   -0.8377613234    2.3709119676
C        1.4781994873   -1.0424784641    2.8006050690
C        3.9496860461   -0.9540397934    3.3096488035
C        5.2718480682   -0.8033437466    3.0405424708
C        1.1552290573   -1.4805671728    4.2094969148
C        6.1010109956   -1.6096942927    2.0681300118
H        2.1940303254   -0.0876072670   -0.9102069180
H       -0.1404226421   -0.4386542738   -0.1507077247
H        4.0563160658   -0.3397720274    0.6691582354
H       -0.5942363463   -1.0615815977    2.1867907375
H        3.6905567078   -0.9455934474    4.3610419476
H        5.8579907891   -0.5181901280    3.9075425237
H        1.7648209482   -2.3476631418    4.4832133649
H        1.3493649584   -0.6659606021    4.9130697183
H        0.1044709069   -1.7727631780    4.2968784285
H        6.9733550123   -2.0327637897    2.5752610123
H        5.5078526457   -2.4294969163    1.6509168005
H        6.4455367330   -0.9709641436    1.2496417873
22   

C        2.0316621948   -0.4079744999    0.1279536920
C        0.7164946622   -0.5865275082    0.5450176221
C        3.0750717339   -0.5176859010    1.0492214945
C        0.4493560062   -0.8742262004    1.8830671661
C        2.8291929341   -0.7905430184    2.4091641409
C        1.4850750171   -0.9749031661    2.8282026355
C        3.9408906428   -0.8659347598    3.3788418925
C        5.2662531168   -0.8478981216    3.1106868506
C        1.1435044194   -1.3642833837    4.2470814048
C        5.9805488523   -1.6240643588    2.0322286914
H        2.2456722671   -0.1764301856   -0.9090993863
H       -0.0966735987   -0.5061095452   -0.1673885353
H        4.0825599521   -0.3463859433    0.6958385061
H       -0.5788888643   -1.0297453191    2.1881683087
H        3.6780871736   -0.7968754164    4.4272332839
H        5.8951693330   -0.6370167365    3.9688394607
H        1.7632895017   -2.2087442481    4.5653856838
H        1.3085292117   -0.5199341549    4.9222126476
H        0.0973686413   -1.6750894239    4.3256312282
H        6.8489395000   -2.1386313449    2.4544057818
H        5.3151393263   -2.3739241696    1.5928969762
H        6.3260412177   -0.9467652895    1.2457351830
22   

C        2.0519772395   -0.4375742369    0.1345783322
C        0.7368588471   -0.6097405531    0.5519539096
C        3.0928501024   -0.5137805303    1.0618484890
C        0.4671288962   -0.8539053579    1.8974942371
C        2.8468140678   -0.7478440385    2.4304152912
C        1.5000162625   -0.9184949355    2.8490078765
C        3.9458931223   -0.7887228665    3.4177773021
C        5.2640742623   -0.9128678013    3.1642209043
C        1.1532401492   -1.2717822773    4.2761951531
C        5.8994606687   -1.6321136966    2.0022226780
H        2.2681834965   -0.2338835839   -0.9078605982
H       -0.0740442201   -0.5564830309   -0.1655650008
H        4.0946647388   -0.3326791841    0.7005057003
H       -0.5613421978   -1.0055621063    2.2036747601
H        3.6849830401   -0.6754237416    4.4628836039
H        5.9152093215   -0.7782385536    4.0211094626
H        1.7834489474   -2.0968101142    4.6238539443
H        1.2985447673   -0.4057974794    4.9278536938
H        0.1120660968   -1.5988113203    4.3551479615
H        6.7625404835   -2.2072278575    2.3506824282
H        5.1923712978   -2.3286935922    1.5410711288
H        6.2460533870   -0.9133329934    1.2539417009
22   

C        2.0599674676   -0.4632699807    0.1377169440
C        0.7454523114   -0.6219114703    0.5602532974
C        3.1018335597   -0.5182926047    1.0652012215
C        0.4772827639   -0.8285562444    1.9118706450
C        2.8595696995   -0.7188581567    2.4407434345
C        1.5110873637   -0.8702224302    2.8638066788
C        3.9528406501   -0.7386497734    3.4356488000
C        5.2544893322   -0.9988925713    3.2117394484
C        1.1627553853   -1.1907944088    4.2984948968
C        5.8636128270   -1.6272916029    1.9867068803
H        2.2752121757   -0.2843993454   -0.9094734042
H       -0.0660337542   -0.5860436990   -0.1576866132
H        4.0988422153   -0.3371862013    0.6931050177
H       -0.5511552520   -0.9703651981    2.2227610727
H        3.6930345972   -0.5979876996    4.4777098992
H        5.9036457311   -0.9422532031    4.0787695655
H        1.7943616078   -2.0058906254    4.6665863306
H        1.3037715761   -0.3094623489    4.9300770353
H        0.1227338869   -1.5201506142    4.3829613346
H        6.7324057835   -2.2262307301    2.2757502700
H        5.1505068692   -2.2929815497    1.4908775916
H        6.2016172436   -0.8552277571    1.2893009774
22   

C        2.0547202406   -0.4887331911    0.1373502620
C        0.7409110430   -0.6231614559    0.5689073798
C        3.1003570182   -0.5326827077    1.0611076929
C        0.4772407794   -0.7930802360    1.9261207068
C        2.8641086041   -0.6975869135    2.4429809536
C        1.5148472316   -0.8220730305    2.8744643510
C        3.9580651193   -0.7077045078    3.4381311429
C        5.2327158947   -1.0947516037    3.2469790540
C        1.1677793814   -1.1099994370    4.3165264000
C        5.8574555298   -1.6106930191    1.9790487789
H        2.2668241764   -0.3363662167   -0.9146627557
H       -0.0733667129   -0.5968221792   -0.1462788111
H        4.0941092178   -0.3654364440    0.6758948930
H       -0.5511208329   -0.9176159123    2.2445000740
H        3.6989027112   -0.5512037985    4.4780277513
H        5.8640041091   -1.1151450786    4.1287070055
H        1.7932135744   -1.9230331946    4.6995534656
H        1.3175014679   -0.2172784082    4.9297286000
H        0.1255600072   -1.4297632815    4.4102897850
H        6.7459474787   -2.2003409298    2.2239052175
H        5.1662407127   -2.2644304988    1.4386016989
H        6.1713379559   -0.7793964296    1.3409714083
22   

C        2.0648264426   -0.4166900877    0.1449297460
C        0.7510923644   -0.4539830305    0.5969983121
C        3.0967868273   -0.8812559224    0.9622272398
C        0.4735530262   -0.9628376740    1.8640919422
C        2.8446591691   -1.4084809087    2.2465575105
C        1.4967400262   -1.4511606842    2.6955358120
C        3.9260596001   -1.9396228117    3.1032682177
C        5.2378426250   -1.6446831955    3.0370857067
C        1.1417383697   -1.9023724308    4.0929664304
C        5.8809450618   -0.4963587654    2.3060412440
H        2.2867278629   -0.0387899917   -0.8464752981
H       -0.0525084416   -0.0884383135   -0.0321571118
H        4.0918811441   -0.8785413492    0.5438221695
H       -0.5534739611   -0.9667219261    2.2099928967
H        3.6495671345   -2.5873679885    3.9261633624
H        5.8746059639   -2.1606574705    3.7474770201
H        1.2470007933   -2.9871666996    4.1805341790
H        1.7946144966   -1.4142143891    4.8238937520
H        0.1118321002   -1.6286618699    4.3412208755
H        6.2026094959   -0.8105701850    1.3087913590
H        5.1951404306    0.3527773037    2.2276173443
H        6.7647548554   -0.1605391771    2.8566599734
22   

C        2.0570310656   -0.4343573154    0.1323331517
C        0.7423497625   -0.4565520643    0.5845513917
C        3.0867091894   -0.8828173025    0.9616097825
C        0.4617152870   -0.9314060377    1.8646331081
C        2.8291081864   -1.3790193285    2.2561006250
C        1.4827049077   -1.4020111829    2.7087422931
C        3.9150337739   -1.8907034038    3.1183492119
C        5.2400121978   -1.6998802725    2.9590494615
C        1.1273882725   -1.8228916085    4.1153471100
C        5.9150569331   -0.5078940355    2.3307756808
H        2.2812216748   -0.0791398397   -0.8669031488
H       -0.0597071946   -0.1044704961   -0.0541794749
H        4.0872116287   -0.8862854353    0.5542053025
H       -0.5655907067   -0.9237830482    2.2097179908
H        3.6359441139   -2.5169607261    3.9568395917
H        5.8741619041   -2.2793148157    3.6212205698
H        1.2360000750   -2.9052443636    4.2267900595
H        1.7785447336   -1.3171941026    4.8357389852
H        0.0961134872   -1.5477035417    4.3561148030
H        6.2486116156   -0.7503706947    1.3175409248
H        5.2376998142    0.3511466150    2.2976564193
H        6.7913958410   -0.2252751394    2.9217454989
22   

C        2.0351775815   -0.4585974805    0.1086834417
C        0.7215828946   -0.4758157487    0.5665623795
C        3.0706834742   -0.8726670915    0.9487733223
C        0.4480949259   -0.9075950773    1.8639721126
C        2.8177360668   -1.3290617652    2.2572417952
C        1.4753490466   -1.3413639967    2.7199684379
C        3.9198344465   -1.7996901563    3.1208236859
C        5.2469771090   -1.7224261708    2.8729396210
C        1.1296964907   -1.7252200223    4.1393634783
C        5.9987333743   -0.5274471151    2.3412925180
H        2.2538322061   -0.1315215627   -0.9013189877
H       -0.0853312641   -0.1516477998   -0.0807688516
H        4.0762417286   -0.8716551503    0.5511603883
H       -0.5781796036   -0.8967062349    2.2121155140
H        3.6425887563   -2.3883316603    3.9866127847
H        5.8585277348   -2.3650742591    3.4969926267
H        1.2601541828   -2.8013860350    4.2836314572
H        1.7720273949   -1.1852590579    4.8425093727
H        0.0930170496   -1.4646160160    4.3729266346
H        6.3312506794   -0.7162136315    1.3163675640
H        5.3632591288    0.3636703566    2.3537245809
H        6.8783739083   -0.3323827128    2.9620162084
22   

C        1.9948738213   -0.4845159004    0.0796457318
C        0.6846615555   -0.4949693857    0.5494476055
C        3.0400434739   -0.8609585211    0.9256723132
C        0.4244695790   -0.8789788516    1.8651084522
C        2.7983672414   -1.2711830044    2.2498843775
C        1.4620180231   -1.2720131653    2.7282171859
C        3.9214517437   -1.6985684586    3.1090830210
C        5.2419759419   -1.7308743493    2.7963906330
C        1.1321173328   -1.6156780860    4.1614798359
C        6.1077973731   -0.5631689280    2.3833631955
H        2.2031756018   -0.1897513587   -0.9424125321
H       -0.1301409861   -0.2014925361   -0.1026227043
H        4.0484672858   -0.8580732219    0.5322335620
H       -0.5991896529   -0.8645244592    2.2208171118
H        3.6466320524   -2.2431401752    4.0038370843
H        5.8071826895   -2.4443380224    3.3863658841
H        1.2881999143   -2.6833477184    4.3403249803
H        1.7659096084   -1.0386107382    4.8424312854
H        0.0904666929   -1.3728206079    4.3918989463
H        6.4476098769   -0.6947377861    1.3519580648
H        5.5437072633    0.3722124773    2.4528968067
H        6.9832560367   -0.4922521670    3.0358032499
22   

C        1.9197144755   -0.5459968602    0.0374280226
C        0.6192159689   -0.5406958139    0.5347374106
C        2.9853877425   -0.8631412291    0.8822584779
C        0.3894052934   -0.8476097793    1.8764477917
C        2.7739010709   -1.1922928157    2.2327078900
C        1.4484994484   -1.1759532995    2.7404694610
C        3.9266234170   -1.5531267161    3.0810851179
C        5.2385905003   -1.6996196582    2.7315325726
C        1.1493474336   -1.4555988704    4.1942898012
C        6.2506737079   -0.6176219663    2.4240520013
H        2.1044916237   -0.3080657802   -1.0037955010
H       -0.2118849690   -0.2954061247   -0.1166658581
H        3.9896597044   -0.8691817617    0.4763439170
H       -0.6275706187   -0.8265621364    2.2505747390
H        3.6626738426   -2.0191925919    4.0219573542
H        5.7287487488   -2.4750942483    3.3104640030
H        1.3492970921   -2.5059423125    4.4256615686
H        1.7685722934   -0.8202249855    4.8353407136
H        0.1012031400   -1.2441836921    4.4260846639
H        6.6065661617   -0.7207672401    1.3948636551
H        5.7946143662    0.3703775009    2.5405054003
H        7.1057296525   -0.6913787509    3.1027987903
22   

C        1.8224792251   -0.6039527692   -0.0003629446
C        0.5373133727   -0.5836051779    0.5354168376
C        2.9155673644   -0.8706004597    0.8267285777
C        0.3503273705   -0.8241598003    1.8973525880
C        2.7473863716   -1.1288996072    2.1976765631
C        1.4379488428   -1.0977032982    2.7449453479
C        3.9329503842   -1.4362005917    3.0214303385
C        5.2415866369   -1.6451174488    2.6562640925
C        1.1829841687   -1.3220833211    4.2166713571
C        6.3814341860   -0.6558966561    2.5141390567
H        1.9740870454   -0.4164063300   -1.0571296239
H       -0.3152382364   -0.3792568333   -0.1022482430
H        3.9092973554   -0.8879292842    0.3951644005
H       -0.6557260066   -0.7967023867    2.2995510996
H        3.6964592299   -1.8236776529    4.0040747032
H        5.6505160892   -2.4938426725    3.1942498100
H        1.4259651290   -2.3537169334    4.4882684172
H        1.7939451565   -0.6379083037    4.8137202109
H        0.1331921717   -1.1396611765    4.4649313995
H        6.7862563929   -0.6969060903    1.4988216434
H        6.0241890272    0.3600405206    2.7080783933
H        7.1817189288   -0.8875183840    3.2235716200
