22   

C        1.8242286502   -0.2088362426    0.1162969830
C        0.5376097845   -0.4647895678    0.5834585958
C        2.9234160407   -0.4431160745    0.9451060323
C        0.3550746636   -0.9595686969    1.8755859686
C        2.7602446371   -0.9282505904    2.2537354472
C        1.4489984747   -1.1985385343    2.7255180330
C        3.9531985060   -1.1290921218    3.0993932345
C        5.2694877430   -0.8026800157    2.8750549637
C        1.1977429434   -1.7612697360    4.1044662178
C        6.3746217888   -1.6108833429    2.2243155503
H        1.9723483133    0.1741150110   -0.8868603246
H       -0.3195983128   -0.2827676325   -0.0547276615
H        3.9183788759   -0.2349342446    0.5699323779
H       -0.6524689162   -1.1606347132    2.2206782301
H        3.7286682574   -1.3012613042    4.1441901121
H        5.7038958694   -0.3537774991    3.7620325853
H        1.7824427154   -2.6747419850    4.2511586050
H        1.4761673043   -1.0279436408    4.8672222950
H        0.1414220291   -2.0124498204    4.2388826029
H        7.1827874309   -1.7996238054    2.9374701015
H        5.9830486516   -2.5713729911    1.8757723604
H        6.7798054793   -1.0658733904    1.3668710940
22   

C        1.9187396217   -0.2805544383    0.1176214380
C        0.6176388568   -0.5044427296    0.5599756593
C        2.9924216811   -0.4791231445    0.9881152476
C        0.3950678054   -0.9309940232    1.8698385273
C        2.7888643338   -0.8920198415    2.3165916628
C        1.4625294102   -1.1298572568    2.7625876066
C        3.9509288606   -1.0579426601    3.2115149556
C        5.2683485942   -0.7942056483    2.9670551580
C        1.1696195769   -1.6351167365    4.1554834591
C        6.2419611261   -1.5944965357    2.1295795955
H        2.0979029115    0.0504918898   -0.8988481628
H       -0.2196561371   -0.3516667787   -0.1114549856
H        3.9972882111   -0.2932783141    0.6288419125
H       -0.6229129915   -1.1126464914    2.1944474396
H        3.7020096448   -1.1391327389    4.2620364931
H        5.7830791276   -0.4349159209    3.8517710271
H        1.7651355162   -2.5293122509    4.3648874914
H        1.4049757176   -0.8634086619    4.8942788034
H        0.1142533084   -1.9037401622    4.2607166146
H        7.0984957572   -1.9063047399    2.7348480803
H        5.7513586541   -2.4873109430    1.7297332991
H        6.6020704014   -0.9878044305    1.2936595020
22   

C        1.9921248423   -0.3533686018    0.1210810331
C        0.6818372969   -0.5520221383    0.5467576078
C        3.0468632606   -0.5032930246    1.0237929368
C        0.4310465761   -0.9030903369    1.8734226038
C        2.8154364435   -0.8377613234    2.3709119676
C        1.4787122439   -1.0480126609    2.7993571462
C        3.9496860461   -0.9540397934    3.3096488035
C        5.2718480682   -0.8033437466    3.0405424708
C        1.1565615964   -1.4907293262    4.2069766023
C        6.1010109956   -1.6096942927    2.0681300118
H        2.1932465749   -0.0778864931   -0.9077752258
H       -0.1404620478   -0.4388616420   -0.1505574814
H        4.0556741751   -0.3296861972    0.6717758946
H       -0.5934285205   -1.0709746771    2.1846830725
H        3.6913694080   -0.9481439059    4.3612706453
H        5.8577806590   -0.5110637478    3.9053033544
H        1.7679133119   -2.3573143837    4.4783373823
H        1.3490722107   -0.6776641663    4.9127939620
H        0.1063426828   -1.7850924615    4.2935499553
H        6.9744101240   -2.0310448077    2.5748615939
H        5.5084226680   -2.4306859295    1.6524514639
H        6.4438323160   -0.9714477355    1.2485536317
22   

C        2.0317871890   -0.4004535112    0.1293358530
C        0.7170773324   -0.5866520569    0.5446629451
C        3.0749917988   -0.5098492990    1.0508799181
C        0.4501907478   -0.8816423321    1.8812232915
C        2.8291929341   -0.7905430184    2.4091641409
C        1.4857086476   -0.9824437149    2.8265581848
C        3.9408906428   -0.8659347598    3.3788418925
C        5.2662531168   -0.8478981216    3.1106868506
C        1.1449899139   -1.3781666148    4.2438691781
C        5.9805488523   -1.6240643588    2.0322286914
H        2.2455487544   -0.1633469150   -0.9065132394
H       -0.0959378203   -0.5063814418   -0.1679345125
H        4.0822938644   -0.3330443839    0.6994847317
H       -0.5776253101   -1.0425186446    2.1849964591
H        3.6783071497   -0.7991187077    4.4274486383
H        5.8954434203   -0.6321898765    3.9674345185
H        1.7673774700   -2.2217800049    4.5592880676
H        1.3072642043   -0.5357425288    4.9220919494
H        0.0997427335   -1.6922799133    4.3210611380
H        6.8491189440   -2.1384039924    2.4543056860
H        5.3150619812   -2.3739560719    1.5930631497
H        6.3256292983   -0.9468031209    1.2455264041
22   

C        2.0529104921   -0.4280759896    0.1358410167
C        0.7382731712   -0.6098969750    0.5509341115
C        3.0932211393   -0.5039177548    1.0637863667
C        0.4684445676   -0.8633432850    1.8948213895
C        2.8468140678   -0.7478440385    2.4304152912
C        1.5007650392   -0.9280967080    2.8469222801
C        3.9458931223   -0.7887228665    3.4177773021
C        5.2640742623   -0.9128678013    3.1642209043
C        1.1548077752   -1.2894750198    4.2722562187
C        5.8994606687   -1.6321136966    2.0022226780
H        2.2690801901   -0.2173928900   -0.9052171480
H       -0.0722073010   -0.5568115538   -0.1670749016
H        4.0950183935   -0.3161651231    0.7054495491
H       -0.5595343631   -1.0218096081    2.1992150739
H        3.6846033930   -0.6772921047    4.4630089777
H        5.9156186673   -0.7753900427    4.0203431795
H        1.7884636106   -2.1132605457    4.6165334977
H        1.2961511462   -0.4257978474    4.9278724837
H        0.1149214217   -1.6210316015    4.3492490014
H        6.7617871364   -2.2083279257    2.3507267596
H        5.1916495564   -2.3273621975    1.5401544273
H        6.2468606859   -0.9132105127    1.2544393973
22   

C        2.0617108634   -0.4519598907    0.1387998095
C        0.7476292352   -0.6221112773    0.5586240036
C        3.1026889955   -0.5065608800    1.0673277600
C        0.4789676764   -0.8398497528    1.9085176212
C        2.8595696995   -0.7188581567    2.4407434345
C        1.5118689041   -0.8816954986    2.8614000588
C        3.9528406501   -0.7386497734    3.4356488000
C        5.2544893322   -0.9988925713    3.2117394484
C        1.1642791904   -1.2119656245    4.2940339314
C        5.8636128270   -1.6272916029    1.9867068803
H        2.2771625729   -0.2647754108   -0.9068961063
H       -0.0631866718   -0.5864514967   -0.1600831869
H        4.0998956532   -0.3176852947    0.6991661060
H       -0.5489690942   -0.9898079853    2.2172546914
H        3.6921641978   -0.5994818712    4.4777177994
H        5.9038611341   -0.9412355481    4.0785385329
H        1.8001492102   -2.0254482240    4.6582847158
H        1.3001670176   -0.3332151984    4.9303641576
H        0.1258966043   -1.5470605163    4.3760357541
H        6.7307000637   -2.2286692884    2.2758093835
H        5.1491260586   -2.2901638632    1.4890729821
H        6.2037018858   -0.8550928919    1.2904710763
22   

C        2.0571743402   -0.4756719819    0.1382096463
C        0.7436609554   -0.6234617985    0.5668084072
C        3.1016864807   -0.5190938790    1.0632913445
C        0.4791082267   -0.8062016862    1.9223267070
C        2.8641086041   -0.6975869135    2.4429809536
C        1.5155587219   -0.8353420728    2.8718954643
C        3.9580651193   -0.7077045078    3.4381311429
C        5.2327158947   -1.0947516037    3.2469790540
C        1.1691470830   -1.1345339084    4.3117818213
C        5.8574555298   -1.6106930191    1.9790487789
H        2.2697357634   -0.3136676190   -0.9122724702
H       -0.0697641354   -0.5974011779   -0.1493578802
H        4.0958830410   -0.3427527785    0.6827321050
H       -0.5488060011   -0.9402055547    2.2383237848
H        3.6977084487   -0.5523985576    4.4779397950
H        5.8637389048   -1.1159181222    4.1288754374
H        1.7997032161   -1.9456185272    4.6904651691
H        1.3125912144   -0.2445575859    4.9305023968
H        0.1288504689   -1.4613015630    4.4026949915
H        6.7432489080   -2.2044184506    2.2238344125
H        5.1640483223   -2.2599278153    1.4359693120
H        6.1749929379   -0.7792641570    1.3429624674
22   

C        2.0661974339   -0.4270015334    0.1400297670
C        0.7532958574   -0.4530454750    0.5956892996
C        3.0972436799   -0.8924363560    0.9580116444
C        0.4756380545   -0.9514855843    1.8670140500
C        2.8446591691   -1.4084809087    2.2465575105
C        1.4979157290   -1.4401116366    2.6993682359
C        3.9260596001   -1.9396228117    3.1032682177
C        5.2378426250   -1.6446831955    3.0370857067
C        1.1439894880   -1.8819767823    4.1000205236
C        5.8809450618   -0.4963587654    2.3060412440
H        2.2880234550   -0.0570047392   -0.8543710964
H       -0.0496187173   -0.0869498666   -0.0340218789
H        4.0922417807   -0.8984124163    0.5389855926
H       -0.5506023738   -0.9472917062    2.2152563000
H        3.6487439800   -2.5860625701    3.9269437503
H        5.8747919304   -2.1614184006    3.7467536426
H        1.2441501938   -2.9668278010    4.1930217148
H        1.8011224766   -1.3933700097    4.8267966881
H        0.1159344339   -1.6021331821    4.3491018350
H        6.2046705167   -0.8113554750    1.3097108775
H        5.1936935934    0.3513375057    2.2246323848
H        6.7631288549   -0.1584255953    2.8579730748
22   

C        2.0576398775   -0.4431659893    0.1285195221
C        0.7437787462   -0.4559435408    0.5837539787
C        3.0867365471   -0.8922654676    0.9581880371
C        0.4633659918   -0.9220034972    1.8671999811
C        2.8291081864   -1.3790193285    2.2561006250
C        1.4837876945   -1.3927506169    2.7118978549
C        3.9150337739   -1.8907034038    3.1183492119
C        5.2400121978   -1.6998802725    2.9590494615
C        1.1295727595   -1.8057839330    4.1210788780
C        5.9150569331   -0.5078940355    2.3307756808
H        2.2815509637   -0.0946402605   -0.8731353926
H       -0.0578447451   -0.1034774044   -0.0553089145
H        4.0869668830   -0.9029714345    0.5499294635
H       -0.5632066181   -0.9076530181    2.2142600709
H        3.6356241631   -2.5154119169    3.9579118040
H        5.8744897069   -2.2813741701    3.6190946541
H        1.2342485224   -2.8880634641    4.2371152151
H        1.7841786966   -1.2995265995    4.8379207143
H        0.0997544783   -1.5257589091    4.3624952738
H        6.2494106246   -0.7507611060    1.3179019073
H        5.2369482326    0.3505038774    2.2961866337
H        6.7906768082   -0.2243282661    2.9223553833
22   

C        2.0350467999   -0.4657443963    0.1060098901
C        0.7221721716   -0.4755481846    0.5663181505
C        3.0703347843   -0.8802183392    0.9461762683
C        0.4491848440   -0.9003356763    1.8661894385
C        2.8177360668   -1.3290617652    2.2572417952
C        1.4762400697   -1.3340931209    2.7224217890
C        3.9198344465   -1.7996901563    3.1208236859
C        5.2469771090   -1.7224261708    2.8729396210
C        1.1316561636   -1.7117489629    4.1437216615
C        5.9987333743   -0.5274471151    2.3412925180
H        2.2532626407   -0.1440353938   -0.9058118639
H       -0.0845823195   -0.1511615980   -0.0811025176
H        4.0755090093   -0.8849284612    0.5474443911
H       -0.5764763841   -0.8841985979    2.2159395865
H        3.6428794247   -2.3865273387    3.9879476496
H        5.8586618926   -2.3685008471    3.4933078352
H        1.2593976201   -2.7877621950    4.2916395715
H        1.7765885218   -1.1711184738    4.8439470114
H        0.0959820925   -1.4476511712    4.3778133928
H        6.3308459804   -0.7160613016    1.3162118538
H        5.3631801019    0.3636144964    2.3538810493
H        6.8785451931   -0.3325305040    2.9618144223
22   

C        1.9942561979   -0.4900750996    0.0779314940
C        0.6846604973   -0.4949577694    0.5496036101
C        3.0394616648   -0.8667347011    0.9238189238
C        0.4251267967   -0.8736555515    1.8669570938
C        2.7983672414   -1.2711830044    2.2498843775
C        1.4627353803   -1.2665773120    2.7300427501
C        3.9214517437   -1.6985684586    3.1090830210
C        5.2419759419   -1.7308743493    2.7963906330
C        1.1338350205   -1.6055895997    4.1646301228
C        6.1077973731   -0.5631689280    2.3833631955
H        2.2020339225   -0.1994239480   -0.9454126468
H       -0.1301731555   -0.2013871862   -0.1023855756
H        4.0474538351   -0.8681652421    0.5292047064
H       -0.5980332503   -0.8553000923    2.2239222722
H        3.6475153288   -2.2411018090    4.0053583284
H        5.8067930429   -2.4492476807    3.3807469390
H        1.2882769738   -2.6730436258    4.3462394326
H        1.7694344444   -1.0277985633    4.8432638708
H        0.0928187241   -1.3604392647    4.3954824150
H        6.4459539977   -0.6937185019    1.3512877272
H        5.5442771018    0.3724106873    2.4548019300
H        6.9842586228   -0.4935313802    3.0345826724
22   

C        1.9190688266   -0.5496460477    0.0366317845
C        0.6189976375   -0.5408151227    0.5350304113
C        2.9848633266   -0.8668752579    0.8812778821
C        0.3897422582   -0.8443299425    1.8776195323
C        2.7739010709   -1.1922928157    2.2327078900
C        1.4489874518   -1.1725374857    2.7415076448
C        3.9266234170   -1.5531267161    3.0810851179
C        5.2385905003   -1.6996196582    2.7315325726
C        1.1505877738   -1.4492961490    4.1960221059
C        6.2506737079   -0.6176219663    2.4240520013
H        2.1034156604   -0.3143623850   -1.0052704445
H       -0.2121999539   -0.2955068184   -0.1162425191
H        3.9888034934   -0.8756432462    0.4745842928
H       -0.6269041915   -0.8208427862    2.2524954670
H        3.6640400400   -2.0169965562    4.0234325911
H        5.7274497296   -2.4819158669    3.3023126208
H        1.3499533316   -2.4993736060    4.4291327870
H        1.7707150418   -0.8132474921    4.8355179940
H        0.1027190746   -1.2368257073    4.4280947006
H        6.6038175170   -0.7184658947    1.3936932813
H        5.7957117976    0.3704371917    2.5441979305
H        7.1073708068   -0.6938814314    3.1004275370
22   

C        1.8219706311   -0.6062887782   -0.0006887360
C        0.5370904639   -0.5837747933    0.5357036933
C        2.9151772882   -0.8729521372    0.8262421031
C        0.3505133932   -0.8222211081    1.8980734717
C        2.7473863716   -1.1288996072    2.1976765631
C        1.4382814591   -1.0956378603    2.7455185703
C        3.9329503842   -1.4362005917    3.0214303385
C        5.2415866369   -1.6451174488    2.6562640925
C        1.1838707022   -1.3183179909    4.2175856890
C        6.3814341860   -0.6558966561    2.5141390567
H        1.9732616368   -0.4203907313   -1.0577926095
H       -0.3155555117   -0.3794408742   -0.1018399444
H        3.9086809061   -0.8919435860    0.3942287103
H       -0.6553250597   -0.7932898374    2.3007049639
H        3.6980273212   -1.8214083541    4.0053437253
H        5.6480650859   -2.5029056328    3.1815519573
H        1.4269117062   -2.3496643869    4.4902344873
H        1.7951225987   -0.6335287762    4.8136233877
H        0.1341688263   -1.1356306783    4.4660302521
H        6.7824433361   -0.6926401749    1.4971528399
H        6.0256151196    0.3593805064    2.7140294843
H        7.1840651844   -0.8914529904    3.2195747528
