45   

C       -2.7926435270   -1.1499853097   -0.8874511456
C       -1.7908690326   -0.1097957663   -0.6153852910
C       -0.6460821673   -0.6448743149   -0.0525814501
C       -4.0938192015   -0.9901786058   -1.5270879373
C       -2.3850436163   -2.3895687705   -0.5046181556
C       -4.4824332410   -3.3174970063   -1.2264757323
C       -7.2922861034   -1.8417457363   -1.0625456904
C       -7.9017777202   -0.7340216601   -0.6047004323
C       -2.0295355610    1.3570895053   -0.8871298858
C       -8.6139601185   -0.7484001083    0.7275725271
C       -7.7940170664    0.5871168235   -1.3289488156
C       -0.5642991377   -5.5979685571   -3.2133626010
C        0.6034623645    0.0771001587    0.3753706561
C       -6.2911451490   -1.9302288140   -2.1857226981
C       -2.7649040474   -4.8454094318   -0.2952146426
C       -2.2262245811   -5.6265988635   -1.4943191053
N       -4.9487980008   -2.0732064183   -1.6220291966
N       -3.2132958676   -3.5045451073   -0.6797369308
O       -4.4042563434    0.0810145039   -2.0286902206
O       -5.2124395351   -4.2935003689   -1.3587831597
O        1.7100219519   -0.4734959832   -0.3364609487
O       -1.0690442161   -4.9743420084   -2.0297543962
S       -0.7641636869   -2.3896928585    0.1806364656
H       -7.4694796284   -2.7711997019   -0.5320105066
H       -3.0136649287    1.6508636950   -0.5100619288
H       -1.2916020310    1.9942826292   -0.3971827196
H       -1.9995362027    1.5446148325   -1.9645204003
H       -8.2940306209    0.1014905201    1.3381814487
H       -9.6950702037   -0.6837423436    0.5723203643
H       -8.3949111778   -1.6660911898    1.2822054044
H       -8.4351777048    0.5796689168   -2.2149267268
H       -8.1152985670    1.4082878366   -0.6815220222
H       -6.7679162206    0.7968684153   -1.6336377309
H        0.3495022777   -5.0892902961   -3.5350826746
H       -1.3004997520   -5.5360180555   -4.0210101288
H       -0.3279294089   -6.6497146514   -3.0227263094
H        0.5395109688    1.1475659527    0.1690901535
H        0.7550175573   -0.0524465154    1.4516298182
H       -6.3598480052   -1.0607435014   -2.8472860514
H       -6.5293003098   -2.7945215719   -2.8157498085
H       -3.5995954997   -5.4000856008    0.1460844289
H       -1.9935369603   -4.7930669935    0.4778066091
H       -3.0052406747   -5.7082341319   -2.2598923022
H       -1.9586980381   -6.6372639410   -1.1700108741
H        1.4974910527   -0.5482068198   -1.2841596336
45   

C       -2.8771435128   -1.2079530936   -0.8729151341
C       -1.8975153480   -0.1583258268   -0.5578504992
C       -0.7674101266   -0.6850074216    0.0414863300
C       -4.1809304670   -1.0536214103   -1.5105973735
C       -2.4588655895   -2.4479090319   -0.5004025037
C       -4.5151734112   -3.4016154025   -1.3008084167
C       -7.3296439464   -1.9005556582   -1.1261654184
C       -7.8734741803   -0.7660393769   -0.6482644156
C       -2.1236404182    1.3028700998   -0.8677168005
C       -8.2849444352   -0.6582940078    0.8009652283
C       -7.8854251972    0.4963423741   -1.4745200328
C       -0.5074556734   -5.5904213527   -3.1988820745
C        0.4543301293    0.0428476570    0.5313734419
C       -6.3334065207   -2.0220733350   -2.2529780626
C       -2.8026750152   -4.9132107950   -0.3361208018
C       -2.2169949706   -5.6694015037   -1.5291171994
N       -4.9958130500   -2.1582011177   -1.6797193381
N       -3.2617844994   -3.5743931050   -0.7155012759
O       -4.5469269908    0.0424856256   -1.9119108845
O       -5.2216563956   -4.3881603025   -1.4748133688
O        1.5479750836   -0.2982363019   -0.3181316227
O       -1.0561264887   -4.9910817046   -2.0222935559
S       -0.8630173713   -2.4340772531    0.2410775669
H       -7.4544671904   -2.8005477439   -0.5336528469
H       -2.9663648710    1.6788665132   -0.2796339021
H       -1.2470086423    1.9145252441   -0.6487281532
H       -2.3574260016    1.4272151196   -1.9291784189
H       -7.9384752026    0.2900340358    1.2230206913
H       -9.3748600591   -0.7033012475    0.8835122022
H       -7.8537962441   -1.4725038112    1.3915644400
H       -8.6736572604    1.1689235688   -1.1230489571
H       -6.9270373185    1.0156661261   -1.3869938993
H       -8.0810335169    0.2745259206   -2.5274961677
H        0.4057363885   -5.0617232329   -3.4884387393
H       -1.2218316897   -5.5310166705   -4.0260900937
H       -0.2578113286   -6.6402487238   -3.0146967096
H        0.3054448337    1.1248916314    0.5240903210
H        0.6765471961   -0.2557654746    1.5606999304
H       -6.3857798693   -1.1591514196   -2.9244283951
H       -6.5802826966   -2.8936746629   -2.8693854268
H       -3.6407762334   -5.4869859528    0.0731512061
H       -2.0550487503   -4.8597396555    0.4597608355
H       -2.9722269730   -5.7534704808   -2.3178983703
H       -1.9420651985   -6.6798337649   -1.2103260089
H        1.2708373436   -0.2766746745   -1.2515811691
45   

C       -2.9296984695   -1.2410501533   -0.8746417020
C       -1.9657337427   -0.1866831265   -0.5285131274
C       -0.8401101898   -0.7111211251    0.0811022343
C       -4.2265303584   -1.0898508359   -1.5271467558
C       -2.5046519620   -2.4822969401   -0.5139914240
C       -4.5380637422   -3.4447873849   -1.3608356145
C       -7.3522931982   -1.9263558098   -1.1733119564
C       -7.8220156806   -0.7752251964   -0.6518178656
C       -2.1992688875    1.2766405273   -0.8224369720
C       -7.9168183328   -0.5734496941    0.8415170302
C       -7.9534354599    0.4504865734   -1.5211714617
C       -0.4828608263   -5.5736125345   -3.2189397624
C        0.3661659034    0.0216464414    0.6010438613
C       -6.3611734221   -2.0661127679   -2.3058903756
C       -2.8285697143   -4.9525035484   -0.3851636651
C       -2.2166154952   -5.6897876911   -1.5766634169
N       -5.0245621735   -2.2009924845   -1.7303613946
N       -3.2928657357   -3.6134417703   -0.7573124701
O       -4.6045147165    0.0106629791   -1.9048587569
O       -5.2333963115   -4.4350109430   -1.5568058057
O        1.4777933344   -0.2998822139   -0.2326079467
O       -1.0539540491   -4.9954305435   -2.0424828463
S       -0.9210164367   -2.4638244975    0.2530762284
H       -7.4364794961   -2.8122773806   -0.5531302292
H       -3.0417932722    1.6428059714   -0.2279177699
H       -1.3240303162    1.8893189323   -0.6005620857
H       -2.4363546770    1.4115550699   -1.8818456224
H       -7.4736833376    0.3866924197    1.1230034105
H       -8.9652037787   -0.5828646434    1.1535654676
H       -7.3837649811   -1.3657952981    1.3759193156
H       -8.7718565527    1.0796852156   -1.1585352771
H       -7.0290720698    1.0349458322   -1.4932635994
H       -8.1734371743    0.1772353365   -2.5572816987
H        0.4294171495   -5.0326641256   -3.4880061720
H       -1.1857823796   -5.5094621553   -4.0555540347
H       -0.2261513242   -6.6235185727   -3.0452479950
H        0.2075465583    1.1023518345    0.6036718319
H        0.5727514199   -0.2870539592    1.6306501200
H       -6.4095031619   -1.2048818494   -2.9802399941
H       -6.6154181331   -2.9403436411   -2.9155233074
H       -3.6683156632   -5.5380804573    0.0035339353
H       -2.0947964983   -4.9017802804    0.4236873049
H       -2.9579908720   -5.7713567750   -2.3787465894
H       -1.9378686511   -6.7013503763   -1.2648634922
H        1.2170551238   -0.2704641695   -1.1705572752
45   

C       -2.9899623518   -1.2518463796   -0.8589241692
C       -2.0435692738   -0.1884960854   -0.4924343474
C       -0.9195760131   -0.7036455027    0.1280009235
C       -4.2837185579   -1.1115991644   -1.5203354893
C       -2.5528921599   -2.4906621643   -0.5034085147
C       -4.5595246139   -3.4740655606   -1.3883603118
C       -7.3797965378   -1.9313141983   -1.2037020041
C       -7.7810164913   -0.7606775121   -0.6586433069
C       -2.2865779565    1.2738566849   -0.7830577369
C       -7.5627591681   -0.4541455488    0.8034938741
C       -8.1056433183    0.4064016763   -1.5584969426
C       -0.4629261795   -5.5484238812   -3.1979934432
C        0.2703273549    0.0404798248    0.6690034405
C       -6.3914154749   -2.1092003013   -2.3367333142
C       -2.8489758192   -4.9655064195   -0.3906425324
C       -2.2130286883   -5.6925654048   -1.5757352752
N       -5.0570045084   -2.2340226010   -1.7551681432
N       -3.3225778378   -3.6303701542   -0.7653386263
O       -4.6873762704   -0.0092169600   -1.8659255205
O       -5.2391958692   -4.4715958633   -1.6008867927
O        1.3982687098   -0.2652165797   -0.1485766381
O       -1.0523446177   -4.9836290811   -2.0241112621
S       -0.9799135067   -2.4584788025    0.2846638198
H       -7.4137943863   -2.7914831810   -0.5438701723
H       -3.1178267355    1.6388195684   -0.1722149240
H       -1.4073005237    1.8876807647   -0.5806914265
H       -2.5442562137    1.4079628921   -1.8377111870
H       -6.4924372097   -0.4711483975    1.0304382066
H       -7.9576668852    0.5342211625    1.0576447620
H       -8.0677599862   -1.2002762614    1.4239596207
H       -9.0873008112    0.8133161361   -1.2984956324
H       -7.3545608122    1.1933516158   -1.4353509148
H       -8.1309528109    0.1107943687   -2.6110588367
H        0.4456422520   -4.9954514017   -3.4548500097
H       -1.1581855657   -5.4876209506   -4.0412416936
H       -0.1958920815   -6.5962791918   -3.0275348782
H        0.0990215137    1.1192972989    0.6734870683
H        0.4646384948   -0.2701059656    1.7004400482
H       -6.4311292456   -1.2612726154   -3.0282869920
H       -6.6534318442   -2.9950948110   -2.9258655236
H       -3.6876937809   -5.5611674441   -0.0152178993
H       -2.1269262599   -4.9095535281    0.4283412070
H       -2.9427752667   -5.7803568827   -2.3877698843
H       -1.9269412328   -6.7017650045   -1.2629348534
H        1.1516014584   -0.2361439697   -1.0903250501
45   

C       -3.0264577062   -1.2597714310   -0.8632988855
C       -2.0901765581   -0.1928213453   -0.4817223739
C       -0.9732237664   -0.7037779000    0.1549649302
C       -4.3108373044   -1.1245786526   -1.5440716734
C       -2.5893911334   -2.4969896544   -0.5021127928
C       -4.5796357835   -3.4880504257   -1.4140277841
C       -7.4066680982   -1.9621556499   -1.2489227611
C       -7.7223388319   -0.8104249921   -0.6036181701
C       -2.3372453195    1.2684914443   -0.7738800557
C       -7.2294656337   -0.5097572625    0.7919206408
C       -8.1100556770    0.3874101706   -1.4390584917
C       -0.4575384138   -5.5391167782   -3.1804924976
C        0.2058519265    0.0438195360    0.7149345380
C       -6.4077186245   -2.1315629033   -2.3786375390
C       -2.8753938105   -4.9735439725   -0.3971337331
C       -2.2228421452   -5.6960054723   -1.5760158061
N       -5.0767405555   -2.2500134207   -1.7880888090
N       -3.3502124081   -3.6398134024   -0.7755147646
O       -4.7135705581   -0.0240335740   -1.8967438802
O       -5.2531356520   -4.4881854520   -1.6341049784
O        1.3541366197   -0.2816228674   -0.0659320791
O       -1.0604221166   -4.9810904432   -2.0102082360
S       -1.0284826789   -2.4590480247    0.3090288699
H       -7.4806058226   -2.8613669279   -0.6469597279
H       -3.1842240299    1.6258102124   -0.1803836130
H       -1.4674379410    1.8884274457   -0.5506711047
H       -2.5731164175    1.4031660818   -1.8335697225
H       -6.6253896131    0.4026099786    0.8004340982
H       -8.0792676354   -0.3787026276    1.4679656156
H       -6.6088630152   -1.3303771798    1.1646032016
H       -9.1484134798    0.6603435714   -1.2296586382
H       -7.4696340801    1.2442506687   -1.2072504720
H       -8.0233309145    0.1814499678   -2.5094380073
H        0.4513748358   -4.9817551755   -3.4263982652
H       -1.1448102735   -5.4776346473   -4.0302189752
H       -0.1882263436   -6.5866252428   -3.0114911378
H        0.0411933638    1.1234215719    0.6964542987
H        0.3704421861   -0.2502664194    1.7563369788
H       -6.4512986108   -1.2824784676   -3.0686261161
H       -6.6593817380   -3.0186323287   -2.9705406088
H       -3.7158644011   -5.5733276407   -0.0323150811
H       -2.1630366222   -4.9159700686    0.4301646955
H       -2.9429978466   -5.7859068127   -2.3963502442
H       -1.9357051189   -6.7043860369   -1.2615344783
H        1.1346171290   -0.2633688533   -1.0146597543
45   

C       -3.0643897734   -1.2257905466   -0.9198450545
C       -2.1359520060   -0.1560975886   -0.5272490383
C       -1.0379021406   -0.6609880970    0.1463752791
C       -4.3300173312   -1.0970021939   -1.6364421103
C       -2.6403597128   -2.4589856219   -0.5302199769
C       -4.6088139449   -3.4577120984   -1.4789788149
C       -7.4436038697   -1.9519709347   -1.3959383502
C       -7.6799501561   -0.8742902265   -0.5961909169
C       -2.3731847984    1.3013597534   -0.8451964417
C       -6.9845601792   -0.6726639680    0.7301888047
C       -8.1602861533    0.3829327737   -1.2812421926
C       -0.4492734168   -5.5334446938   -3.1209438639
C        0.1280108134    0.0904489590    0.7286861964
C       -6.4111635456   -2.1132073830   -2.5014135988
C       -2.9330120763   -4.9339555334   -0.4033199290
C       -2.2529785132   -5.6704733041   -1.5578147666
N       -5.0927690157   -2.2237397641   -1.8826011557
N       -3.3962264991   -3.6038358904   -0.8081420175
O       -4.7222815176   -0.0006561007   -2.0131171500
O       -5.2786933280   -4.4595173659   -1.7031900600
O        1.3025935383   -0.2747163126    0.0066394286
O       -1.0791104938   -4.9620704938   -1.9714556155
S       -1.1020010251   -2.4139404434    0.3221997846
H       -7.6311528685   -2.9068639698   -0.9170910429
H       -3.2391679456    1.6655421423   -0.2842003124
H       -1.5115138084    1.9246287126   -0.6010129788
H       -2.5744980012    1.4225356478   -1.9136293801
H       -6.3379085544    0.2096382228    0.6988447548
H       -7.7251493530   -0.5433393837    1.5246680275
H       -6.3627468832   -1.5404477458    0.9704567353
H       -9.2265426512    0.5264417444   -1.0842691828
H       -7.6174579473    1.2605354187   -0.9166443293
H       -8.0126944555    0.3261844054   -2.3640182014
H        0.4667665428   -4.9806973285   -3.3502618114
H       -1.1154514907   -5.4790974651   -3.9877849348
H       -0.1867781287   -6.5797818136   -2.9348114019
H       -0.0203639872    1.1707906448    0.6684238878
H        0.2465772873   -0.1713439375    1.7848678079
H       -6.4547787613   -1.2612471983   -3.1887282273
H       -6.6391561322   -3.0023977103   -3.0997715319
H       -3.7831656276   -5.5285121897   -0.0526274006
H       -2.2410721508   -4.8682677517    0.4405198287
H       -2.9529995100   -5.7686108568   -2.3944796116
H       -1.9752632700   -6.6756933068   -1.2252512401
H        1.1232556474   -0.2807373482   -0.9506658170
45   

C       -2.7033819009   -1.0285848484   -0.3954022159
C       -1.6189880283   -0.0396298847   -0.3159924775
C       -0.4350770444   -0.6195355888    0.1036929205
C       -4.0891849215   -0.8088752834   -0.7992457640
C       -2.3016452920   -2.2794319434   -0.0400022243
C       -4.5155390798   -3.1244291487   -0.4396173725
C       -7.2667905037   -1.3441393991   -0.1030883946
C       -8.4009235497   -0.5940718594   -0.1939306861
C       -1.8027798671    1.4173233370   -0.6697645566
C       -9.7661127209   -1.1833961121   -0.4744361635
C       -8.2240146203    0.8724062307   -0.5066851214
C       -1.0054431668   -5.6638221674   -2.8638733578
C        0.8979869169    0.0391721346    0.3307530369
C       -6.3512485593   -1.6852881003   -1.2584106772
C       -2.7559541256   -4.7101648195    0.2938010589
C       -2.4286499023   -5.5446598770   -0.9458516506
N       -4.9789183312   -1.8671441686   -0.7942325375
N       -3.1950589423   -3.3570538450   -0.0587513716
O       -4.4640878304    0.2991510410   -1.1589615816
O       -5.2956227101   -4.0698990289   -0.4562272587
O        1.8062156018   -0.4331618562   -0.6624290911
O       -1.3319797252   -4.9634625316   -1.6604575711
S       -0.6019497156   -2.3476084334    0.4100557642
H       -7.3531331599   -2.1943050530    0.5647660294
H       -2.4878711092    1.8869116573    0.0425456141
H       -0.8608749990    1.9681131310   -0.6625534799
H       -2.2296271194    1.5062881897   -1.6731621374
H      -10.5082390663   -0.3991805751   -0.6525008591
H       -9.7204831374   -1.8299703142   -1.3558961658
H      -10.0953128684   -1.7805618311    0.3810238607
H       -8.8928975541    1.1793414804   -1.3168546539
H       -8.4469514760    1.4716332419    0.3805676409
H       -7.1970356524    1.0887022634   -0.8192362281
H       -0.1193088574   -5.2139049216   -3.3217736228
H       -1.8341505475   -5.6046498739   -3.5765104555
H       -0.7898412130   -6.7157849626   -2.6508512123
H        0.8218027217    1.1272323376    0.2731934568
H        1.2724300795   -0.2161983115    1.3270712799
H       -6.4065805756   -0.9026142337   -2.0233421382
H       -6.7132474333   -2.5969624495   -1.7466492654
H       -3.5435096405   -5.2140738110    0.8638451860
H       -1.8811512101   -4.6789582630    0.9487448777
H       -3.3112119708   -5.6069031609   -1.5914128058
H       -2.1637784349   -6.5593303995   -0.6318034897
H        1.3776645152   -0.4402004241   -1.5369678310
45   

C       -2.7104569483   -1.0484567989   -0.4347691503
C       -1.6316846239   -0.0549119374   -0.3372386856
C       -0.4514885871   -0.6305989081    0.0984811489
C       -4.0903568852   -0.8341954308   -0.8610890192
C       -2.3088270898   -2.2981391385   -0.0755783905
C       -4.5139069041   -3.1507793552   -0.5069202825
C       -7.2821257198   -1.4247477250   -0.2036384064
C       -8.3521866338   -0.5912627550   -0.2664945321
C       -1.8180527334    1.4024198169   -0.6882170208
C       -9.7753604488   -1.0971456640   -0.3293707029
C       -8.1215160994    0.8359862250   -0.7029119546
C       -0.9683638019   -5.6645355196   -2.8986290741
C        0.8753525670    0.0331156264    0.3467674915
C       -6.3444621395   -1.7197311094   -1.3495399044
C       -2.7572456158   -4.7317758546    0.2437253798
C       -2.4118223607   -5.5604446193   -0.9949490533
N       -4.9775131796   -1.8947488581   -0.8661766876
N       -3.1975399600   -3.3792041049   -0.1094013358
O       -4.4605385719    0.2707525508   -1.2344518034
O       -5.2895932809   -4.0996475351   -0.5363591430
O        1.8007739510   -0.4348041636   -0.6325269864
O       -1.3091851835   -4.9722279537   -1.6944989344
S       -0.6155367471   -2.3600215995    0.3989389913
H       -7.4298549874   -2.3045651209    0.4132710503
H       -2.5268235685    1.8621438205    0.0071738488
H       -0.8818990160    1.9616627290   -0.6510573694
H       -2.2177738094    1.4930601528   -1.7025905402
H      -10.4826447913   -0.2688520241   -0.4355253123
H       -9.8948833762   -1.7722749934   -1.1820313545
H      -10.0182091829   -1.6426801034    0.5873158330
H       -8.7824354122    1.0923842350   -1.5368340102
H       -8.3268287048    1.5150056683    0.1295923105
H       -7.0883570567    0.9970027883   -1.0250628852
H       -0.0786549446   -5.2097095180   -3.3445930315
H       -1.7897488228   -5.6031320868   -3.6195120989
H       -0.7523559616   -6.7172305071   -2.6896708910
H        0.7961284274    1.1209054380    0.2888153953
H        1.2352459214   -0.2216567709    1.3485846167
H       -6.3988480013   -0.9263274311   -2.1029499740
H       -6.6822989803   -2.6273934417   -1.8619967125
H       -3.5495301384   -5.2408034923    0.8025482987
H       -1.8904036087   -4.6994715286    0.9091083117
H       -3.2864469753   -5.6240242442   -1.6510997947
H       -2.1464411145   -6.5751435760   -0.6814390587
H        1.3862883183   -0.4415394149   -1.5138259728
45   

C       -2.7442718859   -1.0450149614   -0.4306133316
C       -1.6735325218   -0.0445502384   -0.3154755659
C       -0.5006770244   -0.6103258676    0.1519088743
C       -4.1136257078   -0.8421584330   -0.8943599347
C       -2.3450126094   -2.2893761305   -0.0516393607
C       -4.5359157085   -3.1562527738   -0.5261918073
C       -7.3268703128   -1.5100313932   -0.2841902109
C       -8.3277996070   -0.6008733767   -0.2881335321
C       -1.8613993139    1.4096698756   -0.6787170776
C       -9.7770317908   -0.9995108564   -0.1330395164
C       -8.0563001461    0.7997758365   -0.7809513462
C       -0.9333309375   -5.6570700758   -2.8309638880
C        0.8167152829    0.0622735120    0.4257234569
C       -6.3571727435   -1.7427652317   -1.4155981647
C       -2.7876774026   -4.7230832930    0.2725057475
C       -2.4114274035   -5.5564913307   -0.9539120505
N       -4.9981057562   -1.9052218877   -0.9045801133
N       -3.2274437973   -3.3750716524   -0.0979774630
O       -4.4743080832    0.2548201889   -1.2985331553
O       -5.3052963388   -4.1098765189   -0.5678787319
O        1.7673143130   -0.4094269799   -0.5272716344
O       -1.2977522425   -4.9654926524   -1.6333670637
S       -0.6628475362   -2.3382149731    0.4625030266
H       -7.5214320627   -2.4140151126    0.2829142750
H       -2.6038152280    1.8632069515   -0.0150689092
H       -0.9345816709    1.9803930931   -0.6032868108
H       -2.2197089684    1.4925626947   -1.7091190817
H      -10.4254036861   -0.1179479087   -0.1254387169
H      -10.0768262803   -1.6476882431   -0.9619264463
H       -9.9187925746   -1.5413914995    0.8067966547
H       -8.5969214834    0.9810451592   -1.7151200130
H       -8.3910879053    1.5267685659   -0.0351784273
H       -6.9900695513    0.9669273480   -0.9564086631
H       -0.0391568139   -5.1975153766   -3.2629264201
H       -1.7431687145   -5.6013280799   -3.5652566179
H       -0.7146462701   -6.7082182012   -2.6171039910
H        0.7340222218    1.1490878490    0.3561761056
H        1.1540064577   -0.1819446414    1.4379747842
H       -6.4133475238   -0.9295939405   -2.1472986075
H       -6.6593569795   -2.6425453664   -1.9630752596
H       -3.5890128589   -5.2332149759    0.8172245205
H       -1.9353564601   -4.6822101147    0.9559333514
H       -3.2717361798   -5.6289116430   -1.6278374838
H       -2.1466495568   -6.5678193165   -0.6292487420
H        1.3742924680   -0.4244063838   -1.4182589151
45   

C       -2.7081054185   -1.1038398058   -0.5708652476
C       -1.6417110736   -0.1034489640   -0.4203795287
C       -0.4801142158   -0.6723208636    0.0706506823
C       -4.0663947142   -0.8978095407   -1.0647015008
C       -2.3167739620   -2.3512629356   -0.1935406242
C       -4.4951246754   -3.2154862069   -0.7271565791
C       -7.2849762164   -1.6028919288   -0.5073886239
C       -8.2142093244   -0.6281207268   -0.4328694689
C       -1.8215105050    1.3538437906   -0.7752923325
C       -9.6361699694   -0.9280679397   -0.0197569185
C       -7.9076597972    0.7461444776   -0.9755095523
C       -0.8510906895   -5.6920545353   -2.9762448897
C        0.8289412639   -0.0005344828    0.3833615132
C       -6.3013169311   -1.7928653341   -1.6318915110
C       -2.7651155577   -4.7880180345    0.0991128396
C       -2.3628201545   -5.6118012968   -1.1254365867
N       -4.9497223652   -1.9611648630   -1.1035394756
N       -3.1968050765   -3.4372032008   -0.2705318557
O       -4.4185238135    0.2025274480   -1.4674933988
O       -5.2623672936   -4.1692887080   -0.7959769574
O        1.8009368155   -0.4540949701   -0.5567340519
O       -1.2353036725   -5.0151377389   -1.7764874688
S       -0.6475766053   -2.4031912808    0.3610220555
H       -7.5035217766   -2.5165037632    0.0350763859
H       -2.5759244892    1.8027560626   -0.1221159194
H       -0.8955646933    1.9227440419   -0.6780775671
H       -2.1600374996    1.4456021775   -1.8116041279
H      -10.1883842950   -0.0060296164    0.1851230985
H      -10.1487233450   -1.4722187109   -0.8186581722
H       -9.6452823929   -1.5420292050    0.8859495419
H       -8.1182309922    0.7815774507   -2.0486281360
H       -8.5179411302    1.5037975908   -0.4752382150
H       -6.8568522004    1.0012594358   -0.8112814438
H        0.0501639209   -5.2274903249   -3.3876249929
H       -1.6485928190   -5.6271492012   -3.7231887629
H       -0.6361403976   -6.7457859126   -2.7715330924
H        0.7439593204    1.0870361353    0.3296189019
H        1.1454466780   -0.2599879157    1.3985335780
H       -6.3515867442   -0.9571114370   -2.3379694264
H       -6.5879396420   -2.6778987372   -2.2108747664
H       -3.5780040090   -5.3020964417    0.6225965562
H       -1.9275478143   -4.7526540904    0.8008306728
H       -3.2087683270   -5.6792245670   -1.8178166780
H       -2.1044477627   -6.6255420307   -0.8031802885
H        1.4262725533   -0.4577223336   -1.4557100842
45   

C       -2.7143945703   -1.1471649478   -0.6605441148
C       -1.6589899070   -0.1404844345   -0.4776798995
C       -0.5063718376   -0.7043239661    0.0394767453
C       -4.0616626527   -0.9471484093   -1.1859038829
C       -2.3241189978   -2.3940945508   -0.2805953149
C       -4.4820643894   -3.2700191798   -0.8750354689
C       -7.2827707336   -1.7144298619   -0.6877526828
C       -8.1476402178   -0.6959022256   -0.5233769872
C       -1.8384456470    1.3175093399   -0.8299950506
C       -9.4861390029   -0.9135484976    0.1424298470
C       -7.9008523137    0.6381742256   -1.1836145122
C       -0.7784099016   -5.7055186436   -3.0506938205
C        0.7894940366   -0.0251130230    0.3887163532
C       -6.2804994148   -1.8518735650   -1.8024154655
C       -2.7636609905   -4.8351512214   -0.0117851981
C       -2.3271408297   -5.6506361527   -1.2300251609
N       -4.9364274134   -2.0162468023   -1.2534093382
N       -3.1945155750   -3.4854072228   -0.3860383527
O       -4.4115447742    0.1538746168   -1.5886123170
O       -5.2401099627   -4.2288908566   -0.9703524414
O        1.7851421552   -0.4577341719   -0.5363508705
O       -1.1885222374   -5.0434335117   -1.8512849371
S       -0.6691179861   -2.4379192742    0.3157729437
H       -7.4835176103   -2.6303945467   -0.1424270562
H       -2.6066085840    1.7606616927   -0.1890264024
H       -0.9165902182    1.8895667100   -0.7138809157
H       -2.1580299476    1.4123035116   -1.8720223538
H       -9.4776382397   -0.4780481024    1.1460071920
H      -10.2813531773   -0.4389148280   -0.4404934914
H       -9.7140896176   -1.9806881502    0.2255659609
H       -8.1135721036    0.5771392742   -2.2549456546
H       -8.5461883157    1.4056850768   -0.7457538509
H       -6.8631831038    0.9523280803   -1.0403675178
H        0.1277905842   -5.2318844170   -3.4402676002
H       -1.5622111092   -5.6369008556   -3.8116864839
H       -0.5616661825   -6.7601996228   -2.8529263131
H        0.6953619601    1.0622822715    0.3471699678
H        1.0868456350   -0.2947910505    1.4070087595
H       -6.3285452059   -0.9986366962   -2.4866709161
H       -6.5426270867   -2.7240629257   -2.4116965876
H       -3.5858238985   -5.3563641074    0.4897049954
H       -1.9433712306   -4.7979594277    0.7099595334
H       -3.1560902671   -5.7203856889   -1.9424548633
H       -2.0696358789   -6.6641236871   -0.9063378282
H        1.4288815580   -0.4550611959   -1.4427780122
45   

C       -2.7636110803   -1.1332151108   -0.6899371657
C       -1.7149829006   -0.1237416112   -0.4845714952
C       -0.5802496024   -0.6805444523    0.0777984030
C       -4.0913269665   -0.9407543486   -1.2651646517
C       -2.3869816263   -2.3747659000   -0.2803361712
C       -4.5258833212   -3.2573943872   -0.9316240626
C       -7.3275325407   -1.7459217937   -0.8162425047
C       -8.1083718024   -0.6834408693   -0.5526333103
C       -1.8847137432    1.3302106158   -0.8580081297
C       -9.3150390816   -0.8215869331    0.3455696523
C       -7.8784864297    0.6453546869   -1.2301241296
C       -0.7604537085   -5.7107445588   -2.9649033549
C        0.7035550819    0.0031471899    0.4613279018
C       -6.3021051296   -1.8484510757   -1.9141510673
C       -2.8360435955   -4.8120945627    0.0038661535
C       -2.3611345279   -5.6414451582   -1.1902797475
N       -4.9681082877   -2.0080509941   -1.3382618076
N       -3.2541870766   -3.4670706418   -0.4003198725
O       -4.4202641198    0.1514727419   -1.7070794676
O       -5.2806261937   -4.2175629575   -1.0396715014
O        1.7293524792   -0.4421959168   -0.4238689196
O       -1.2032963139   -5.0408032175   -1.7816635380
S       -0.7526986393   -2.4104450898    0.3712169112
H       -7.5411566191   -2.6719531889   -0.2932020792
H       -2.6866092342    1.7739800589   -0.2602069484
H       -0.9737166842    1.9094480609   -0.6998244825
H       -2.1524649531    1.4140650281   -1.9154781940
H       -9.0884068690   -0.4186800841    1.3371959146
H      -10.1642812284   -0.2720940092   -0.0719832519
H       -9.6074244206   -1.8708427059    0.4517929864
H       -8.1732104500    0.5910078200   -2.2821288503
H       -8.4687017944    1.4290849656   -0.7457726661
H       -6.8267217249    0.9354843823   -1.1649601071
H        0.1561528824   -5.2395868211   -3.3325048939
H       -1.5229956181   -5.6472591755   -3.7476357065
H       -0.5493834707   -6.7640370262   -2.7540916299
H        0.6119475256    1.0898849347    0.4017898820
H        0.9663457214   -0.2527757584    1.4925915689
H       -6.3482594919   -0.9826235070   -2.5824505514
H       -6.5396198640   -2.7122419602   -2.5451124860
H       -3.6739337646   -5.3274134317    0.4850051578
H       -2.0391401935   -4.7661963957    0.7508719573
H       -3.1671055229   -5.7196185227   -1.9277721908
H       -2.1139424689   -6.6510154548   -0.8469633118
H        1.4038816149   -0.4509066832   -1.3417784207
45   

C       -2.7799924075   -1.1833824062   -0.7853644030
C       -1.7499499135   -0.1633658298   -0.5418419597
C       -0.6257535011   -0.7112979850    0.0495948132
C       -4.0907720649   -1.0021983252   -1.4011551574
C       -2.4022045524   -2.4231310421   -0.3719444759
C       -4.5149148657   -3.3224953172   -1.0836994442
C       -7.3203996105   -1.8454659142   -0.9846058824
C       -8.0217109775   -0.7610218053   -0.6115480515
C       -1.9285078454    1.2920509277   -0.9054724854
C       -9.0249901880   -0.8520178598    0.5144042567
C       -7.8546992334    0.5666476343   -1.3098964615
C       -0.6659244080   -5.7201043593   -3.0297951387
C        0.6382603738   -0.0159868516    0.4755875575
C       -6.2898281333   -1.9207724633   -2.0803237316
C       -2.8337819195   -4.8663540248   -0.1147661783
C       -2.3162866622   -5.6823475386   -1.3002054387
N       -4.9589148439   -2.0750764066   -1.4944705722
N       -3.2544701337   -3.5233343357   -0.5227488115
O       -4.4103302115    0.0849462519   -1.8615890723
O       -5.2582128681   -4.2888011475   -1.2139124268
O        1.6928712335   -0.4381827422   -0.3867361094
O       -1.1483055337   -5.0653646076   -1.8535815719
S       -0.7871254856   -2.4450407708    0.3265213871
H       -7.5205202146   -2.7793424965   -0.4702037090
H       -2.7666316805    1.7133594982   -0.3420542885
H       -1.0379593107    1.8861674225   -0.6949218796
H       -2.1466333963    1.3845089439   -1.9735762869
H       -8.5723149421   -0.4967606951    1.4449846518
H       -9.9029831645   -0.2375421934    0.2928755648
H       -9.3598610298   -1.8839368257    0.6583755451
H       -8.2894786202    0.5232494892   -2.3126072351
H       -8.3568516521    1.3606742667   -0.7491446422
H       -6.7993991366    0.8376132885   -1.3868110836
H        0.2550336715   -5.2357232340   -3.3681735327
H       -1.4074844538   -5.6581803426   -3.8325524359
H       -0.4489222973   -6.7727807857   -2.8219961351
H        0.5345111517    1.0701230402    0.4256216082
H        0.8765697983   -0.2804716930    1.5106328024
H       -6.3420504651   -1.0433220031   -2.7329234036
H       -6.5142599612   -2.7766180558   -2.7267109628
H       -3.6792997689   -5.3937435834    0.3391758934
H       -2.0589157444   -4.8168171068    0.6548603234
H       -3.0999866980   -5.7634540312   -2.0610240856
H       -2.0683404680   -6.6916804756   -0.9567658278
H        1.3920441393   -0.4402636585   -1.3130680244
