27   
Generated by ForceBalance from scan.xyz: Frame 1 of 14
C       -0.8521932873    0.7037667272    4.1024074543
C        3.6954677113    0.8663420462    1.8401138762
C       -1.0036660336   -0.1185444006    3.0101513118
C        2.3692429539    0.5183342797    1.8534464854
C       -0.4274681434    1.9303028935    2.3901133032
C        3.1044475416    0.8164595414   -0.2234111156
C       -0.4758644070    0.2073879747    0.5875725075
C        0.7234602133    0.1732954713   -0.0245586071
C       -1.5979111349   -0.2216305567   -0.3292791659
C        0.5869544340   -0.2428275829   -1.4732952538
C       -0.8460258193   -0.8274948663   -1.5375285520
N       -0.4867895889    1.9765862908    3.7037888291
N        4.1434308641    1.0543994127    0.5421174097
N       -0.7307738522    0.6764840597    1.9009208591
N        1.9786308402    0.4844740797    0.5134178496
H       -0.9877352182    0.4553414200    5.1472524228
H        4.3558189476    0.9888701759    2.6885877741
H       -1.2566198893   -1.1642059579    2.9084560391
H        1.6958225750    0.2747048984    2.6602702852
H       -0.1468155971    2.7415892428    1.7306928416
H        3.0863565940    0.8734318802   -1.3033091866
H       -2.2748300670   -0.9381791627    0.1487836911
H       -2.2083924344    0.6480323344   -0.6083384872
H        0.6998601679    0.6291563104   -2.1307906382
H        1.3509992687   -0.9692951090   -1.7672186173
H       -0.7941679338   -1.9143332259   -1.4260831085
H       -1.3389145647   -0.6169268447   -2.4893208195
27   
Generated by ForceBalance from scan.xyz: Frame 2 of 14
C       -0.7234245414    0.6620712573    4.0781520444
C        3.6547792494    0.8815648862    1.9069619808
C       -1.0664530857   -0.0525566319    2.9582102608
C        2.3367381826    0.5018446746    1.8961698974
C       -0.3434753337    1.9709302354    2.4176742278
C        3.0682002136    0.9317298022   -0.1581585432
C       -0.5102993831    0.2719060760    0.5844975128
C        0.7035424249    0.2121651466    0.0033079542
C       -1.6061554956   -0.2045318848   -0.3415701748
C        0.6021586418   -0.2661196789   -1.4295769573
C       -0.8236217616   -0.8652940958   -1.4997716831
N       -0.2555056795    1.9188585042    3.7265664699
N        4.1000065306    1.1523507950    0.6230388866
N       -0.8243566032    0.7937218958    1.8699607237
N        1.9498867447    0.5353709162    0.5566157429
H       -0.7874862646    0.3535178114    5.1138083147
H        4.3105292547    0.9720640806    2.7628925542
H       -1.4291652364   -1.0606571423    2.8167567560
H        1.6654724802    0.1931751590    2.6827083901
H       -0.0313755023    2.7963424250    1.7903705767
H        3.0493536806    1.0479166875   -1.2334626011
H       -2.2948996339   -0.8994130263    0.1518973262
H       -2.2105786551    0.6494372200   -0.6763100875
H        0.7204512440    0.5785001541   -2.1211365183
H        1.3808932765   -0.9950145030   -1.6748875974
H       -0.7667727527   -1.9447011329   -1.3319617822
H       -1.2956648491   -0.7069253265   -2.4720653841
27   
Generated by ForceBalance from scan.xyz: Frame 3 of 14
C       -0.6868575905    0.5941731386    4.0018431811
C        3.6755451392    0.8801436438    1.8898575461
C       -1.1999336394    0.0471414473    2.8591468500
C        2.3786857894    0.4305665382    1.8713869880
C       -0.2031238771    1.9772536412    2.4325230773
C        3.0211143775    1.1076244745   -0.1440409740
C       -0.5150297281    0.3239374945    0.5693523189
C        0.7053986720    0.2269149659    0.0077092463
C       -1.5949009962   -0.2177188169   -0.3409660081
C        0.6254750747   -0.3503751721   -1.3899878500
C       -0.7963149954   -0.9590046749   -1.4371955715
N       -0.0374669646    1.7913066908    3.7169982777
N        4.0648524400    1.3035178782    0.6303049525
N       -0.8806773717    0.9334185489    1.8071799635
N        1.9498544384    0.5819300889    0.5551101762
H       -0.7441838535    0.2125754704    5.0133294189
H        4.3512860333    0.9205113397    2.7339416033
H       -1.7200136317   -0.8806511193    2.6687035144
H        1.7402069414    0.0114554649    2.6338927009
H        0.2085564081    2.7970125695    1.8568748697
H        2.9617895029    1.3296115749   -1.2014092072
H       -2.2957160641   -0.8753473369    0.1853788207
H       -2.1893993458    0.6136313843   -0.7428382940
H        0.7499343565    0.4430696996   -2.1389179185
H        1.4129550897   -1.0888304941   -1.5704104783
H       -0.7389671102   -2.0231863900   -1.1905831189
H       -1.2572569020   -0.8728814039   -2.4238399442
27   
Generated by ForceBalance from scan.xyz: Frame 4 of 14
C       -0.7783286449    0.4801281924    3.9107112498
C        3.6932410668    0.8896764447    1.8242847316
C       -1.4214835231    0.1765574189    2.7504974825
C        2.4560775870    0.2919126814    1.7968041096
C       -0.0809873330    1.9176141974    2.4786384769
C        2.8483569627    1.4006934183   -0.0837222468
C       -0.5594387646    0.3665715338    0.5753652461
C        0.6644536387    0.2105077325    0.0370146929
C       -1.6331284093   -0.2190450350   -0.3169930994
C        0.6039618124   -0.4920603030   -1.3025291586
C       -0.8318774943   -1.0663260515   -1.3322108552
N        0.0952152304    1.5535567624    3.7173975947
N        3.9274001060    1.5792996941    0.6487043627
N       -0.9455803857    1.0821863382    1.7536668759
N        1.9057644374    0.6302184744    0.5657833376
H       -0.8831394206    0.0115975437    4.8810745926
H        4.4244102830    0.8657751706    2.6215491287
H       -2.1227167466   -0.6062823011    2.5026439617
H        1.9154450850   -0.3131539256    2.5087143522
H        0.4699258874    2.7050197730    1.9788226140
H        2.6761167233    1.8002633502   -1.0748439173
H       -2.3694920322   -0.8144565588    0.2322786616
H       -2.1871073585    0.5986306716   -0.7964096070
H        0.7738655820    0.2222750255   -2.1192899022
H        1.3761429975   -1.2633143911   -1.3883205403
H       -0.8096833452   -2.1082056285   -0.9996567770
H       -1.2733759986   -1.0481552352   -2.3313136950
27   
Generated by ForceBalance from scan.xyz: Frame 5 of 14
C       -0.9013840942    0.4330030067    3.7407004436
C        3.8398491419    0.9254052268    1.6629459987
C       -1.5954283000    0.4339111750    2.5773255687
C        2.7299377654    0.1165457467    1.5777869781
C        0.1044668160    1.8508823688    2.4845175698
C        2.6284919574    1.7628688670    0.0985701861
C       -0.5188447926    0.4460222532    0.5476528974
C        0.7120575443    0.1685568236    0.0781992846
C       -1.5841041926   -0.1436336876   -0.3565356549
C        0.6681658259   -0.6895215046   -1.1676095768
C       -0.7989134926   -1.1730988145   -1.2014884832
N        0.2060709484    1.2916987363    3.6511070892
N        3.7666855532    1.9478791794    0.7363420113
N       -0.8982745390    1.2940758735    1.6448054142
N        1.9454658677    0.6653475827    0.5742730512
H       -1.1160588362   -0.1068270301    4.6542128090
H        4.6764816355    0.8375487213    2.3437441051
H       -2.4656761910   -0.1253157865    2.2707897318
H        2.4025669706   -0.7454577731    2.1399292922
H        0.8107610830    2.5683014446    2.0852864434
H        2.2356126907    2.3732610266   -0.7049761506
H       -2.4182819982   -0.6016060063    0.1807253757
H       -2.0075189143    0.6617040403   -0.9709011295
H        0.9254826825   -0.0888556394   -2.0508532083
H        1.3898539630   -1.5118374108   -1.1231940790
H       -0.8665608291   -2.1555429348   -0.7246055428
H       -1.1931267986   -1.2692311615   -2.2158784580
27   
Generated by ForceBalance from scan.xyz: Frame 6 of 14
C       -0.8775414159    0.3280208570    3.5898558939
C        3.8720611407    0.9464499558    1.6024003710
C       -1.6358111304    0.5022732021    2.4843942769
C        2.7950332940    0.0944221898    1.5143206850
C        0.0941417472    1.8806510358    2.4805209129
C        2.5370167967    1.8408416798    0.1766442992
C       -0.5383643700    0.4978062762    0.5435329317
C        0.6979648305    0.1617134378    0.1270765383
C       -1.5885657580   -0.0839477556   -0.3854008897
C        0.6651907610   -0.7674254079   -1.0675631245
C       -0.8170327406   -1.1967470837   -1.1300863131
N        0.2632969324    1.1576536830    3.5406940435
N        3.7012232467    2.0313838392    0.7634433298
N       -0.9296300331    1.4262576681    1.5862871959
N        1.9299280403    0.6800912529    0.6034944856
H       -1.0608564674   -0.3143392079    4.4417886620
H        4.7495486176    0.8478149773    2.2281640165
H       -2.5460013648    0.0167674654    2.1694781972
H        2.5384552691   -0.8209196780    2.0268227409
H        0.7945560957    2.6373630913    2.1464150178
H        2.0725957947    2.4871676829   -0.5577955589
H       -2.4774104687   -0.4659797246    0.1214172231
H       -1.9274710821    0.7086934179   -1.0651903742
H        0.9784033882   -0.2275291922   -1.9718394091
H        1.3513178968   -1.6129479904   -0.9507539587
H       -0.9440503551   -2.1419510817   -0.5935510487
H       -1.1762243878   -1.3434978990   -2.1514500470
27   
Generated by ForceBalance from scan.xyz: Frame 7 of 14
C       -1.6841873063   -0.1856041231    3.2938250354
C        4.0845481433    0.8798198034    1.4901424714
C       -0.3924586662   -0.0773126062    2.8957919869
C        2.7271381334    1.0052368320    1.6482365503
C       -1.4346619514    1.8533517310    2.6937509435
C        3.2226492842   -0.0475993547   -0.2428639902
C       -0.2808058806    0.6255716918    0.8990796501
C        0.8052425183    0.2768728678    0.1779050211
C       -1.5620207580    0.4350715120    0.1193629739
C        0.4138062326   -0.2949171209   -1.1676273730
C       -1.1161486323   -0.4839401666   -1.0395152618
N       -2.3659895102    1.0387207448    3.0755246477
N        4.3839073241    0.2219097452    0.3099259564
N       -0.2149201637    1.2473256891    2.2495154776
N        2.1598678243    0.4035394950    0.5228311465
H       -2.1931427757   -1.0339772445    3.7327758699
H        4.8639169015    1.2247676673    2.1575041388
H        0.4147142051   -0.7955122074    2.8704022067
H        2.1158085896    1.4633671418    2.4074353461
H       -1.6163270555    2.8953859440    2.4458312438
H        3.0787974222   -0.5554008690   -1.1858513505
H       -2.3673008743   -0.0068609174    0.7106861557
H       -1.9270464705    1.4059827382   -0.2402070719
H        0.6829714258    0.4075000832   -1.9676696637
H        0.9192555180   -1.2407794468   -1.3891585186
H       -1.3295182386   -1.5233455394   -0.7736947372
H       -1.6428203073   -0.2670921846   -1.9719412174
27   
Generated by ForceBalance from scan.xyz: Frame 8 of 14
C       -1.7559757175   -0.0870424779    3.4555662074
C        4.0939850626    0.8594760593    1.4682101698
C       -0.4957269492   -0.1420125115    2.9590996010
C        2.7355151693    0.9315629738    1.6482722591
C       -1.3719804965    1.8586103745    2.6433492209
C        3.2398480870    0.0556037601   -0.3283924557
C       -0.2666209260    0.5832291391    0.8750257508
C        0.8191727060    0.2719390807    0.1410252260
C       -1.5532481146    0.3732827470    0.1078419016
C        0.4264336870   -0.2656727837   -1.2190539686
C       -1.0958751258   -0.5063853889   -1.0771785510
N       -2.3324150394    1.1737120883    3.1819455926
N        4.3992029683    0.3122343906    0.2339432355
N       -0.2287930362    1.1045447226    2.2508671280
N        2.1736317128    0.4096446895    0.4818241095
H       -2.3070123790   -0.8428588061    4.0004556367
H        4.8706548964    1.1687783383    2.1558702466
H        0.2269937339   -0.9447147157    2.9156102952
H        2.1213395582    1.3017413569    2.4518558393
H       -1.4790417562    2.8789951574    2.2884839502
H        3.0993477094   -0.3748677644   -1.3096549555
H       -2.3329391627   -0.1036486290    0.7077200709
H       -1.9544042652    1.3378936447   -0.2291236978
H        0.6611239670    0.4718383278   -1.9979587815
H        0.9589215464   -1.1865128958   -1.4783412687
H       -1.2715689014   -1.5578868537   -0.8318338266
H       -1.6401602350   -0.2867422411   -1.9987893195
27   
Generated by ForceBalance from scan.xyz: Frame 9 of 14
C       -1.7809019915    0.0385247524    3.6367170308
C        4.0836130082    0.8539934257    1.4667057936
C       -0.6032116775   -0.2060204120    3.0047174154
C        2.7243035491    0.8680597547    1.6516403385
C       -1.2874937107    1.8572536123    2.6152550975
C        3.2527810459    0.1447527752   -0.3801369968
C       -0.2649495786    0.5057579438    0.8481762200
C        0.8279642039    0.2474975381    0.1059948304
C       -1.5475428510    0.2805258719    0.0788807006
C        0.4471680167   -0.2462632487   -1.2741547143
C       -1.0682355179   -0.5372903047   -1.1416346327
N       -2.2359093156    1.3335247065    3.3342900575
N        4.4037863291    0.4026791644    0.1974085062
N       -0.2661266694    0.9587414146    2.2322693240
N        2.1774960649    0.4066090603    0.4531462139
H       -2.3434536451   -0.6087730791    4.2974846500
H        4.8514290863    1.1416447611    2.1733868044
H        0.0106435222   -1.0933528778    2.9383242178
H        2.1016533059    1.1551602222    2.4823222155
H       -1.3249794981    2.8500493978    2.1797512479
H        3.1237198769   -0.2220959679   -1.3885424719
H       -2.3018804575   -0.2446870579    0.6726914217
H       -1.9873870368    1.2408824088   -0.2195358202
H        0.6574270201    0.5290444729   -2.0225571033
H        1.0075746725   -1.1387978577   -1.5703784155
H       -1.2129854885   -1.6029394753   -0.9415077125
H       -1.6185143451   -0.2952083852   -2.0539527673
27   
Generated by ForceBalance from scan.xyz: Frame 10 of 14
C       -1.7851465731    0.2075566975    3.7886363443
C        4.0460614070    0.8575859449    1.5335282490
C       -0.7329570618   -0.2363723908    3.0450640025
C        2.6853857135    0.8040689043    1.6978263196
C       -1.1984833981    1.8700642572    2.5664053769
C        3.2675606156    0.2694676178   -0.3777562347
C       -0.2773413164    0.4238163776    0.8122108851
C        0.8357595527    0.2331383785    0.0796865048
C       -1.5387107810    0.1814579737    0.0134598445
C        0.4933357942   -0.2026392091   -1.3297142246
C       -1.0112068535   -0.5590461629   -1.2360838000
N       -2.0998460765    1.5252693783    3.4442378613
N        4.3995157384    0.5243660614    0.2363708244
N       -0.3319620192    0.8296488283    2.1961821408
N        2.1722501269    0.4207519348    0.4575442093
H       -2.3396719558   -0.3175296214    4.5559664898
H        4.7931690111    1.1153535967    2.2731133851
H       -0.2434002053   -1.1980298246    2.9790849758
H        2.0435037176    0.9965344686    2.5411836898
H       -1.1588930844    2.8233627318    2.0515792497
H        3.1653181634   -0.0187924405   -1.4144240903
H       -2.2760462004   -0.4005335104    0.5756737033
H       -2.0160248789    1.1356275530   -0.2454824057
H        0.6810268643    0.6192081214   -2.0330214198
H        1.0947246527   -1.0544248237   -1.6627273322
H       -1.1152105285   -1.6378647446   -1.0881231908
H       -1.5569179518   -0.2966883186   -2.1454566571
27   
Generated by ForceBalance from scan.xyz: Frame 11 of 14
C       -1.7098835382    0.4032820504    3.9265815697
C        3.9906360272    0.8586742873    1.4987197797
C       -0.9147441518   -0.2980108378    3.0622124435
C        2.6414121843    0.6868969242    1.6739236803
C       -0.9238087157    1.8549347693    2.5548696464
C        3.2145437848    0.4479415782   -0.4587582471
C       -0.3104012156    0.2485658195    0.7764017051
C        0.8036322010    0.1698713839    0.0245365193
C       -1.5642122122   -0.0331132084   -0.0210457609
C        0.4718383172   -0.1919007684   -1.4073982443
C       -1.0097170615   -0.6391003241   -1.3305310728
N       -1.7343974352    1.7497770757    3.5769292269
N        4.3385029638    0.7105949467    0.1659488965
N       -0.3813221733    0.6342697636    2.1544016323
N        2.1295898245    0.4175217749    0.4033007251
H       -2.2607099525    0.0353892887    4.7827992745
H        4.7337902716    1.0793155371    2.2540430684
H       -0.6783468209   -1.3495450268    2.9782686198
H        2.0095358142    0.7229166109    2.5456552355
H       -0.7197297535    2.7619874763    1.9984324478
H        3.1095801087    0.2782842622   -1.5211258589
H       -2.2436460474   -0.7105270163    0.5059324399
H       -2.1190598160    0.8986622247   -0.1949012920
H        0.6040711827    0.6838158441   -2.0560375871
H        1.1203497632   -0.9822806681   -1.7983629962
H       -1.0533270408   -1.7304152513   -1.2735735827
H       -1.5794846732   -0.3330237176   -2.2108545998
27   
Generated by ForceBalance from scan.xyz: Frame 12 of 14
C       -1.6747384541    0.7075244342    3.9725870962
C        3.9124259632    0.8654751008    1.6209973230
C       -1.2409526411   -0.1996102635    3.0397130758
C        2.5879144799    0.5339598076    1.7529432951
C       -0.5255289278    1.8403842063    2.5544166074
C        3.1487859119    0.7719478180   -0.3825738357
C       -0.3445471870    0.1294787902    0.7598281619
C        0.7862336867    0.1572860626    0.0286947445
C       -1.5542607530   -0.2239467221   -0.0763757142
C        0.5084432842   -0.1510997771   -1.4261414820
C       -0.9265616109   -0.7320467768   -1.3946931332
N       -1.2409145721    1.9833367743    3.6444446184
N        4.2518597870    1.0158280610    0.2866057981
N       -0.4782439095    0.5225371833    2.1194216884
N        2.0857894209    0.4712321714    0.4527568561
H       -2.2646381709    0.5239718616    4.8613329196
H        4.6427335787    1.0020690568    2.4079813192
H       -1.3835149781   -1.2660557026    2.9384200359
H        1.9723595901    0.3303973909    2.6138637430
H       -0.0433513917    2.6323245907    1.9949736570
H        3.0428176091    0.8021705612   -1.4582153815
H       -2.1910725665   -0.9742213765    0.4024774368
H       -2.1768990315    0.6693060224   -0.2234476923
H        0.5623887412    0.7673456927   -2.0255249185
H        1.2339975726   -0.8540396493   -1.8477419785
H       -0.8709486590   -1.8241248990   -1.3733948173
H       -1.5089309696   -0.4485915081   -2.2742822418
27   
Generated by ForceBalance from scan.xyz: Frame 13 of 14
C       -1.4756835407    0.7723985075    4.0330534691
C        3.8307609238    0.8878195626    1.6290962023
C       -1.2845165714   -0.1344969969    3.0182187845
C        2.5177366772    0.5044970579    1.7328596521
C       -0.4157096929    1.8377666058    2.4976964320
C        3.0755137890    0.8973854634   -0.3807063753
C       -0.4083290443    0.1266351941    0.6893747903
C        0.7363237970    0.1695162533   -0.0194738459
C       -1.5876083710   -0.2897886602   -0.1608568114
C        0.4951231265   -0.1689805568   -1.4742365486
C       -0.9167618984   -0.8039328423   -1.4556026389
N       -0.9415998634    2.0022158887    3.6910108556
N        4.1675806238    1.1356608382    0.3084617184
N       -0.5837071976    0.5477326233    2.0284841080
N        2.0213494473    0.5099400455    0.4292738065
H       -1.9613797653    0.6127160404    4.9870333384
H        4.5541784536    0.9969088719    2.4266025868
H       -1.5523758774   -1.1754805026    2.9082781563
H        1.9096701235    0.2215786603    2.5770453060
H        0.0826830649    2.5935311434    1.9043394537
H        2.9700727317    0.9928336269   -1.4527817868
H       -2.2059513356   -1.0529939344    0.3226465989
H       -2.2394785192    0.5763728731   -0.3392071138
H        0.5222682926    0.7421657577   -2.0865424768
H        1.2551576886   -0.8483051063   -1.8730372000
H       -0.8189293957   -1.8921743518   -1.4066138823
H       -1.4935978385   -0.5642459196   -2.3516914229
27   
Generated by ForceBalance from scan.xyz: Frame 14 of 14
C       -1.1528954822    0.7537225071    4.0885603157
C        3.7840240217    0.8503591862    1.7346584623
C       -1.1323188050   -0.1110686906    3.0184439757
C        2.4612408358    0.4923575523    1.7908982932
C       -0.3960777395    1.8978012549    2.4337974202
C        3.1153741153    0.8328997161   -0.3051757779
C       -0.4255583542    0.1712491756    0.6302136113
C        0.7488553752    0.1601735804   -0.0290680472
C       -1.5785527766   -0.2537946862   -0.2498476502
C        0.5610519290   -0.2312497881   -1.4784479349
C       -0.8683324343   -0.8278763500   -1.4983370366
N       -0.6961079696    2.0025880271    3.7111425585
N        4.1812657707    1.0658379757    0.4248213906
N       -0.6358502459    0.6284784717    1.9517715885
N        2.0212175182    0.4783787809    0.4666021320
H       -1.4694090361    0.5499199341    5.1034065152
H        4.4750958032    0.9623782576    2.5598761953
H       -1.3984843160   -1.1528438663    2.9117774133
H        1.8156146903    0.2361392936    2.6159176430
H       -0.0000192250    2.6797102637    1.7987902643
H        3.0566341983    0.9077541576   -1.3825315874
H       -2.2285480825   -0.9874728417    0.2388350641
H       -2.2080044418    0.6148565667   -0.4864300978
H        0.6410918711    0.6525634231   -2.1249417454
H        1.3191757229   -0.9458344859   -1.8140820032
H       -0.8034343364   -1.9162458092   -1.4123144680
H       -1.4003377319   -0.6016008574   -2.4251113555
