19   

C        2.1695988722   -0.4782844023   -0.0201428466
C        0.8688035330   -0.3755343409    0.4562184126
C        3.1502388751   -1.0922060826    0.7608100102
C        0.5602568998   -0.8852240952    1.7157682679
C        3.8471384539   -3.0511213041    3.9341885752
C        6.1174077318   -2.6511947455    3.1827571135
C        2.8595678527   -1.6261686417    2.0394869149
C        1.5354982797   -1.5023338787    2.5111865296
C        3.9436541638   -2.2531196598    2.8176715337
N        5.2559536655   -2.0428233336    2.4045458545
O        1.1446388536   -1.9428581878    3.7431824042
S        5.4132612775   -3.5566740002    4.5086887017
H        2.4251497013   -0.0820846578   -0.9963647968
H        0.1034039274    0.1011875599   -0.1464825792
H        4.1533781399   -1.1536980901    0.3530828647
H       -0.4563586159   -0.7909824017    2.0765818432
H        2.9239930858   -3.3531565358    4.4057159104
H        7.1874679924   -2.6006376123    3.0186886967
H        0.2129984770   -1.7137332901    3.8990293786
19   

C        2.1484628678   -0.5517310932   -0.0517815815
C        0.8687507174   -0.3800571853    0.4652806486
C        3.1302915224   -1.1811678135    0.7159959604
C        0.5823827203   -0.8337408485    1.7526995531
C        3.8239442408   -3.2070798361    3.8037048585
C        6.1012334224   -2.5263876248    3.3088144659
C        2.8553042259   -1.6653321477    2.0135402712
C        1.5598704631   -1.4652098420    2.5330394600
C        3.9427949656   -2.2888855373    2.7904260251
N        5.2532108141   -1.9092502586    2.5217701331
O        1.2146921791   -1.8506155185    3.7977603387
S        5.3797692791   -3.6391138819    4.4600342700
H        2.3862572613   -0.1948851781   -1.0474616801
H        0.1032873337    0.1095463780   -0.1269109527
H        4.1226168398   -1.2979093554    0.2933901888
H       -0.4150063245   -0.6833380701    2.1465750734
H        2.8849115433   -3.6171340012    4.1483319983
H        7.1711498101   -2.3628753874    3.2534257138
H        0.3126756575   -1.5527331702    4.0033627790
19   

C        2.1191674621   -0.6057597309   -0.0771453851
C        0.8653215794   -0.3672354949    0.4796575032
C        3.1020481436   -1.2537161151    0.6745212782
C        0.6059793321   -0.7705484366    1.7907077497
C        3.8135879128   -3.3351599971    3.6681366693
C        6.0523391983   -2.4135248040    3.4574665957
C        2.8463203669   -1.6940259874    1.9875803346
C        1.5852664876   -1.4203775326    2.5526846005
C        3.9396097116   -2.3151981969    2.7622582456
N        5.2205586247   -1.7880727791    2.6590529346
O        1.2855223693   -1.7675440524    3.8402992577
S        5.3433865537   -3.7053081668    4.4168192097
H        2.3360212411   -0.2837485802   -1.0893362983
H        0.0998272659    0.1372484022   -0.0998606775
H        4.0808015425   -1.4192752724    0.2365818029
H       -0.3688115383   -0.5672318259    2.2160991496
H        2.8778553687   -3.8306388519    3.8897429275
H        7.1020949830   -2.1523544002    3.5233484396
H        0.4143972289   -1.4151686117    4.0880903273
19   

C        2.0935317490   -0.6509483595   -0.0922739449
C        0.8692263830   -0.3528751332    0.5034283898
C        3.0844459506   -1.3051102653    0.6440718966
C        0.6471920357   -0.7018421815    1.8377105019
C        3.8475416646   -3.4473371237    3.5078252851
C        5.9995726624   -2.3220344751    3.6294972418
C        2.8593909276   -1.6939537230    1.9760559761
C        1.6346546934   -1.3581410415    2.5827173849
C        3.9601996289   -2.3158469467    2.7465701108
N        5.1844305678   -1.6688644254    2.8359197104
O        1.3841577134   -1.6652685120    3.8908222018
S        5.3367025438   -3.7848642271    4.3482505380
H        2.2809533750   -0.3689937385   -1.1221409978
H        0.0981171774    0.1563289963   -0.0643947590
H        4.0441160607   -1.5150002640    0.1837808502
H       -0.3031594394   -0.4529409227    2.2930886512
H        2.9389224008   -4.0294718310    3.5842885520
H        7.0092080806   -1.9837647344    3.8313433221
H        0.5419665659   -1.2712935252    4.1729436637
19   

C        2.0614651643   -0.7077014457   -0.1188873047
C        0.8692684524   -0.3421845537    0.5058583823
C        3.0592102522   -1.3584771454    0.6118427460
C        0.6842974171   -0.6225610012    1.8624517645
C        3.9030908328   -3.5636600212    3.2794709243
C        5.9149615878   -2.2985462309    3.8007427615
C        2.8696401018   -1.6710326223    1.9676633929
C        1.6780546159   -1.2756505601    2.6013596980
C        3.9665434874   -2.3096999314    2.7380638445
N        5.1076812493   -1.5869788673    3.0506410465
O        1.4694901379   -1.5305586245    3.9276938496
S        5.3435954680   -3.9160515256    4.1954966444
H        2.2176551556   -0.4814189775   -1.1675370256
H        0.0933953625    0.1641491748   -0.0580326359
H        3.9936446617   -1.6240465228    0.1293912114
H       -0.2417235744   -0.3256797057    2.3387079224
H        3.0554123971   -4.2254013946    3.1630760709
H        6.8660470379   -1.9177966641    4.1542909501
H        0.6529301584   -1.0992086920    4.2290626410
19   

C        1.9978035948   -0.8294123439   -0.1425823577
C        0.8445697164   -0.3827941428    0.5033644600
C        3.0103193565   -1.4528722066    0.5918690007
C        0.7090184836   -0.5617555966    1.8831455113
C        4.0402607697   -3.6377583569    2.9848830364
C        5.8402368432   -2.3041965573    3.9375586354
C        2.8781835428   -1.6409143705    1.9766401346
C        1.7169939043   -1.1868164688    2.6268477622
C        3.9672859016   -2.2933378156    2.7492391525
N        4.9962522580   -1.5378159956    3.2890694381
O        1.5524606973   -1.3598704663    3.9723197505
S        5.4525012199   -4.0216684577    3.9320133474
H        2.1107011012   -0.6892000525   -1.2116439876
H        0.0578267569    0.1028090154   -0.0636969282
H        3.9106952902   -1.7896177420    0.0897685355
H       -0.1909165272   -0.2116754680    2.3730756424
H        3.3067358105   -4.3512302084    2.6343600933
H        6.7167957290   -1.9096044378    4.4380212820
H        0.7584518212   -0.8917894434    4.2782233271
19   

C        1.9169671456   -0.9662681296   -0.1482614873
C        0.8088353300   -0.4319782658    0.5093067519
C        2.9415903245   -1.5663298166    0.5886409739
C        0.7266117712   -0.5073526158    1.9025235485
C        4.2222104807   -3.6313012026    2.7034323885
C        5.7675963040   -2.3135937922    4.0447796057
C        2.8753465032   -1.6291669692    1.9902385441
C        1.7468023918   -1.1080356186    2.6498544149
C        3.9591757243   -2.2904790903    2.7581762694
N        4.8570645726   -1.5413047855    3.5026292095
O        1.6220880879   -1.1930903318    4.0079520028
S        5.6219567375   -4.0262525910    3.6645177585
H        1.9845125785   -0.9135787179   -1.2290003337
H        0.0129702909    0.0364215376   -0.0595037175
H        3.8031553890   -1.9765948439    0.0733941745
H       -0.1436205647   -0.0988929835    2.4008444073
H        3.6307160554   -4.3393656969    2.1388355709
H        6.5595540213   -1.9246575845    4.6740943331
H        0.8548411355   -0.6807502089    4.3101829210
19   

C        1.8448159906   -1.0716470445   -0.1418843231
C        0.7814736439   -0.4618366019    0.5220350160
C        2.8756373914   -1.6645348847    0.5916114697
C        0.7487183238   -0.4577309507    1.9186375493
C        4.3845400591   -3.5775834600    2.5129912656
C        5.6789674464   -2.3356060299    4.1562821852
C        2.8662811032   -1.6427521757    1.9977907942
C        1.7750061765   -1.0507923570    2.6642081135
C        3.9567111300   -2.2996638409    2.7525972833
N        4.7180897646   -1.5891791959    3.6682852435
O        1.6817129458   -1.0628187053    4.0274301727
S        5.7590148212   -3.9705999721    3.5106047696
H        1.8730566235   -1.0828261376   -1.2256027905
H       -0.0192701362    0.0017007615   -0.0439133332
H        3.7011548298   -2.1310054049    0.0654633332
H       -0.0903297314    0.0052441084    2.4227365976
H        3.9212484913   -4.2464175407    1.8003414627
H        6.3808904284   -1.9690270498    4.8961506400
H        0.9427373783   -0.5070443457    4.3221465734
19   

C        1.7809290505   -1.1591365108   -0.1344784623
C        0.7612279688   -0.4802848858    0.5278337534
C        2.8122534092   -1.7521035570    0.5973916678
C        0.7731971886   -0.4074853098    1.9217696200
C        4.5143895471   -3.5119341429    2.3816177314
C        5.5802893418   -2.3954343691    4.2598644138
C        2.8506293493   -1.6674839402    2.0033414641
C        1.7998531746   -1.0001818740    2.6679779281
C        3.9562470365   -2.3126776686    2.7405260045
N        4.5880996783   -1.6747531811    3.7975188343
O        1.7291202145   -0.9407454948    4.0312792613
S        5.8531099527   -3.9172697559    3.4219656721
H        1.7761594872   -1.2226494718   -1.2167684239
H       -0.0402526684   -0.0160759720   -0.0365327569
H        3.6036086248   -2.2645272933    0.0621527250
H       -0.0340080418    0.1092284583    2.4256485238
H        4.1600363945   -4.1268411986    1.5656928848
H        6.1944049457   -2.0729921491    5.0925423653
H        1.0114241887   -0.3504084907    4.3097894316
19   

C        1.7194853982   -1.2322500268   -0.1125974494
C        0.7363574514   -0.5009992742    0.5451514626
C        2.7558453265   -1.8186337947    0.6164780167
C        0.7923268026   -0.3676344739    1.9320241672
C        4.6469137327   -3.4157232626    2.2867826973
C        5.4923594014   -2.4675916036    4.3569660372
C        2.8386540050   -1.6842870509    2.0199404236
C        1.8242885417   -0.9527560100    2.6779826754
C        3.9683649781   -2.3099472105    2.7363910260
N        4.4733464975   -1.7747401751    3.9121727520
O        1.7763274181   -0.8185346127    4.0368640635
S        5.9489184636   -3.8432096212    3.3642343035
H        1.6840101041   -1.3404662084   -1.1907850676
H       -0.0695160461   -0.0412988140   -0.0166646677
H        3.5163767816   -2.3627268548    0.0693423887
H        0.0132129582    0.1930841997    2.4330855648
H        4.3978504846   -3.9658639826    1.3903191016
H        6.0190801429   -2.2080959010    5.2678275773
H        1.0649180616   -0.2123008082    4.2955597574
19   

C        1.6634606305   -1.3068903439   -0.0939237012
C        0.7130563367   -0.5290917872    0.5540598312
C        2.7076877094   -1.8804580422    0.6332918986
C        0.8130486027   -0.3335260712    1.9293405292
C        4.7794934136   -3.2990032434    2.2102397464
C        5.3954321461   -2.5826706111    4.4446050106
C        2.8346265341   -1.6949446439    2.0310778532
C        1.8538211163   -0.9038042587    2.6755777406
C        3.9803939545   -2.3091725007    2.7348592227
N        4.3552206230   -1.9157162088    4.0113073160
O        1.8383228082   -0.6793370611    4.0231032704
S        6.0361824808   -3.7697899072    3.3229848468
H        1.5967950434   -1.4623679847   -1.1648540523
H       -0.0995790343   -0.0792752648   -0.0060395426
H        3.4329307582   -2.4586792469    0.0758305889
H        0.0610568589    0.2692709725    2.4229630016
H        4.6497540805   -3.7562977104    1.2405362826
H        5.8298018865   -2.4128367898    5.4228183871
H        1.1180672342   -0.0757346964    4.2617791999
19   

C        1.6188305892   -1.3746766281   -0.0698372887
C        0.6996230372   -0.5525159403    0.5659340172
C        2.6724637598   -1.9333926482    0.6549707306
C        0.8426679580   -0.2952874912    1.9262822644
C        4.9221458536   -3.1372854919    2.1610321127
C        5.2636875574   -2.7553352821    4.5308206146
C        2.8437008402   -1.6895366984    2.0406820030
C        1.8946340882   -0.8476209916    2.6708981702
C        3.9840958599   -2.3153326925    2.7462179541
N        4.2054504137   -2.1154235975    4.1015566806
O        1.9316149016   -0.5238202097    3.9975707112
S        6.1143095760   -3.6826432053    3.3102995330
H        1.5171631655   -1.5819559890   -1.1291928737
H       -0.1213974662   -0.1153222460    0.0080575402
H        3.3539786687   -2.5646475022    0.1016597662
H        0.1179719169    0.3481167814    2.4093856849
H        4.9448437141   -3.4274263896    1.1217890377
H        5.5897995870   -2.7150296811    5.5635074424
H        1.1942548308    0.0616289388    4.2286371207
19   

C        1.5831619699   -1.4470954946   -0.0503116335
C        0.6942260327   -0.5791326135    0.5698083690
C        2.6452543956   -1.9911131893    0.6737352713
C        0.8774532091   -0.2584111950    1.9126398733
C        5.0378006142   -2.9506803566    2.1392631808
C        5.1358374752   -2.9457875613    4.5632153372
C        2.8524463632   -1.6844867359    2.0402538617
C        1.9398169773   -0.7938169836    2.6542735456
C        3.9818756343   -2.3175588396    2.7538159092
N        4.0602336826   -2.3312744354    4.1388685593
O        2.0492078144   -0.3859118313    3.9535432411
S        6.1731669649   -3.5842475214    3.3005832828
H        1.4473559537   -1.7061143117   -1.0943303715
H       -0.1340731182   -0.1547301263    0.0128290779
H        3.2949003937   -2.6787977275    0.1482492265
H        0.1810272156    0.4253175779    2.3817085357
H        5.1765634125   -3.0377578402    1.0718156204
H        5.3674433570   -3.0538425965    5.6163563231
H        1.3031248407    0.1829292832    4.1981831784
19   

C        2.0418651106   -0.4416641248    0.0467121094
C        0.7831735782   -0.3210725863    0.6255890332
C        3.0773140962   -1.0560234951    0.7537037306
C        0.5703401268   -0.8099034932    1.9140473428
C        5.3277368498   -1.9476947144    2.5026082978
C        4.9373840228   -3.7030486770    4.1353082548
C        2.8792801933   -1.5699764579    2.0541494782
C        1.6001353876   -1.4262038984    2.6375555159
C        4.0058221477   -2.2274820184    2.7466454074
N        3.8026419027   -3.2410719359    3.6713969207
O        1.3223448585   -1.8300965643    3.9129347565
S        6.3775328016   -2.9498125327    3.4682928879
H        2.2159113066   -0.0649019133   -0.9548931912
H       -0.0253389105    0.1530405817    0.0797707760
H        4.0388497951   -1.1523414062    0.2638260607
H       -0.4108136815   -0.6975667259    2.3581244934
H        5.6778175865   -1.1907751763    1.8149665029
H        4.9847763753   -4.4959052862    4.8725825373
H        0.3766056160   -1.7322597034    4.1041157884
19   

C        2.0301012458   -0.5285827481   -0.0015003294
C        0.7866163551   -0.3490153764    0.5991095063
C        3.0663330316   -1.1359279560    0.7114213841
C        0.5895731159   -0.7690843003    1.9155968453
C        5.3045434105   -1.8162657482    2.6361534806
C        4.9498476427   -3.7874522260    4.0142905418
C        2.8761670080   -1.5861203729    2.0330091111
C        1.6211216055   -1.3768272286    2.6427084933
C        3.9996448211   -2.2186634689    2.7538679696
N        3.8134622705   -3.3577751392    3.5227665322
O        1.3838749223   -1.7186116904    3.9442546003
S        6.3650511911   -2.8493203965    3.5564310868
H        2.1913625580   -0.2015921783   -1.0225195966
H       -0.0217476653    0.1197688258    0.0485100570
H        4.0227671665   -1.2783744384    0.2212779718
H       -0.3769719124   -0.6090746852    2.3767467602
H        5.6269780862   -0.9628388545    2.0555408748
H        5.0144672471   -4.6630435929    4.6496033822
H        0.4439202717   -1.6110136123    4.1588654940
19   

C        2.0072839417   -0.6242957139   -0.0390588704
C        0.7873176653   -0.3713234156    0.5862468020
C        3.0432800935   -1.2312120909    0.6754186963
C        0.6129832794   -0.7171277675    1.9284834817
C        5.2573930636   -1.7082648323    2.7957299708
C        4.9831787581   -3.8652335423    3.8869304969
C        2.8697709514   -1.6077844189    2.0193097981
C        1.6449220078   -1.3236910473    2.6551628275
C        3.9906741597   -2.2258010665    2.7621589508
N        3.8499678210   -3.4689838448    3.3602466551
O        1.4471274230   -1.6054756651    3.9775428294
S        6.3374032937   -2.7632982650    3.6671416471
H        2.1504651409   -0.3532227064   -1.0789576537
H       -0.0201137961    0.0973356765    0.0341881651
H        3.9863147095   -1.4289349130    0.1779273931
H       -0.3337987729   -0.5012788835    2.4075185126
H        5.5380895523   -0.7674015681    2.3420403643
H        5.0821541055   -4.8088625521    4.4106192293
H        0.5176475066   -1.4658028119    4.2191769394
19   

C        1.9750082129   -0.7377178499   -0.0826394010
C        0.7842368042   -0.4036631224    0.5625364262
C        3.0121678210   -1.3377540286    0.6365439907
C        0.6388605385   -0.6644798364    1.9279239084
C        5.1736660419   -1.6065753999    3.0096852566
C        5.0358176806   -3.9192073770    3.7556527186
C        2.8668449360   -1.6203856579    2.0047082277
C        1.6725214247   -1.2635770587    2.6578070826
C        3.9855171922   -2.2360653805    2.7606188658
N        3.9215553936   -3.5605277351    3.1647263900
O        1.5107032076   -1.4773616995    3.9977007096
S        6.2749613070   -2.6717316900    3.8412825413
H        2.0945935406   -0.5347448570   -1.1408623283
H       -0.0234992786    0.0600651155    0.0067803344
H        3.9345054683   -1.5995393028    0.1297380332
H       -0.2859365985   -0.3906496416    2.4200982156
H        5.3856385180   -0.5844292996    2.7263577852
H        5.1874981843   -4.9155034929    4.1542669972
H        0.5952343003   -1.2914811550    4.2620258454
19   

C        1.9268864215   -0.8794562582   -0.1231652989
C        0.7741536882   -0.4555637470    0.5387838912
C        2.9742527213   -1.4550873877    0.6013976810
C        0.6737924769   -0.6097378346    1.9245452139
C        5.0338563251   -1.5355984947    3.3057737399
C        5.0904795706   -3.9459806368    3.6415637442
C        2.8824623781   -1.6076483833    1.9937801459
C        1.7184311544   -1.1834384250    2.6589806755
C        3.9972624715   -2.2333371132    2.7517472240
N        4.0352778011   -3.6058348908    2.9408208167
O        1.5984969379   -1.3104492792    4.0142638113
S        6.1362644667   -2.6127958982    4.1201507112
H        2.0085656986   -0.7668574005   -1.1983152321
H       -0.0409319881   -0.0099508036   -0.0210360608
H        3.8649690163   -1.7938673394    0.0836803230
H       -0.2254124171   -0.2761677265    2.4271713904
H        5.1350165400   -0.4602479758    3.2478616037
H        5.3064391640   -4.9750127068    3.9041956613
H        0.6983970119   -1.0796628591    4.2965490334
19   

C        1.8727314134   -1.0073062804   -0.1391727583
C        0.7585316790   -0.4992870957    0.5284809408
C        2.9316639977   -1.5545690739    0.5902892816
C        0.7055624892   -0.5488820031    1.9241761103
C        4.8568250554   -1.5554633254    3.5878007061
C        5.1486677009   -3.9693897761    3.4997671381
C        2.9000273873   -1.5809635377    1.9938930511
C        1.7627685086   -1.0938961785    2.6626528570
C        4.0094630124   -2.2203129983    2.7454646706
N        4.1693332474   -3.5971346177    2.7104604217
O        1.6785514938   -1.1332388960    4.0261091920
S        5.9572154007   -2.6643533321    4.3610077562
H        1.9149872915   -0.9846501937   -1.2222089024
H       -0.0655819665   -0.0750369557   -0.0346990101
H        3.7884286015   -1.9673460044    0.0687290911
H       -0.1687175172   -0.1597609497    2.4308241063
H        4.8199904866   -0.4876091012    3.7561459530
H        5.4392102248   -5.0070573015    3.6153625029
H        0.7922931391   -0.8615824305    4.3166363618
19   

C        1.8528133103   -1.0768700313   -0.1390785356
C        0.7700363542   -0.4963969298    0.5191681279
C        2.9094575700   -1.6144441132    0.6002129930
C        0.7456582004   -0.4669208972    1.9155720465
C        4.7109190627   -1.6330354742    3.7825806518
C        5.2460376018   -3.9621506696    3.3339840407
C        2.9133908422   -1.5578393019    2.0047734382
C        1.8007401122   -1.0028698868    2.6641801094
C        4.0132735737   -2.2063006718    2.7544126991
N        4.3103826039   -3.5406842167    2.5168128188
O        1.7291872883   -0.9706523645    4.0287532723
S        5.8409674128   -2.7638928853    4.4768385211
H        1.8725364318   -1.1193076058   -1.2221584118
H       -0.0528894507   -0.0795165907   -0.0512044449
H        3.7395885357   -2.0856376225    0.0847058083
H       -0.1072889907   -0.0251531301    2.4153822993
H        4.5518827590   -0.6180278687    4.1213763615
H        5.6244422811   -4.9774138068    3.3098428958
H        0.8557202567   -0.6528131263    4.3118235235
19   

C        1.8341887590   -1.1275656585   -0.1394024805
C        0.7812016797   -0.4785435869    0.5001570776
C        2.8791994406   -1.6668852827    0.6142506547
C        0.7758804722   -0.3819466120    1.8927828888
C        4.5871793544   -1.7179189681    3.9128473443
C        5.3678033718   -3.9011800514    3.1849315195
C        2.9038884267   -1.5510405945    2.0175953122
C        1.8188613394   -0.9201350578    2.6572641841
C        3.9978860273   -2.1954652065    2.7720167351
N        4.4428247271   -3.4490842495    2.3721973756
O        1.7475583564   -0.8212642710    4.0186830811
S        5.7779839149   -2.8354221219    4.5219421590
H        1.8410747299   -1.2210758413   -1.2194282513
H       -0.0331935392   -0.0599538715   -0.0811087078
H        3.6859647685   -2.1851970002    0.1066664945
H       -0.0554157608    0.1137204891    2.3783479688
H        4.3295995787   -0.7733042198    4.3728035889
H        5.8449540709   -4.8640434263    3.0443632337
H        0.8903164132   -0.4474525097    4.2829346017
19   

C        1.8096794741   -1.1890350577   -0.1324670790
C        0.7946165241   -0.4695375332    0.4891919095
C        2.8383230313   -1.7431315628    0.6320780341
C        0.8123174696   -0.3159269801    1.8753289642
C        4.4828220677   -1.8391165614    4.0093078105
C        5.5005291093   -3.8304192333    3.0641965534
C        2.8852784093   -1.5821581813    2.0340514310
C        1.8383270413   -0.8688231825    2.6530040658
C        3.9770513763   -2.2214147237    2.7919360845
N        4.5700323002   -3.3641459487    2.2665726251
O        1.7688578036   -0.7067146054    4.0080315374
S        5.7470856949   -2.9142530112    4.5419694824
H        1.8020775525   -1.3237017711   -1.2081395373
H       -0.0071864511   -0.0385348775   -0.1004568164
H        3.6154226382   -2.3053466029    0.1251614649
H        0.0096601802    0.2371253980    2.3469411938
H        4.1455517618   -0.9761079464    4.5662266910
H        6.0773805741   -4.7172829001    2.8291642840
H        0.9371917633   -0.2655436703    4.2495679497
19   

C        1.7647657068   -1.2579038192   -0.1233779073
C        0.7923070598   -0.4700151072    0.4792005905
C        2.7794976932   -1.8239714488    0.6501412968
C        0.8407557232   -0.2583843144    1.8555403604
C        4.3663073757   -1.9854917347    4.0923935005
C        5.6185713090   -3.7337235892    2.9724872965
C        2.8557750506   -1.6159827465    2.0485475311
C        1.8528328412   -0.8222540825    2.6444380713
C        3.9477419450   -2.2509626867    2.8090124676
N        4.6850494027   -3.2543645711    2.1872594916
O        1.7987270239   -0.5837751920    3.9878837059
S        5.7014025750   -3.0022449944    4.5636741990
H        1.7369848767   -1.4349378762   -1.1925723488
H        0.0014078185   -0.0284923412   -0.1173603581
H        3.5204028313   -2.4318015798    0.1422897129
H        0.0714791438    0.3519029867    2.3119815141
H        3.9443063308   -1.2332650965    4.7418776157
H        6.2922953623   -4.5235892217    2.6615027304
H        1.0049851604   -0.0655668662    4.2027650979
19   

C        1.6904767034   -1.3422091036   -0.1042452367
C        0.7646565878   -0.4925162183    0.4856452196
C        2.7059787266   -1.9085749377    0.6676025362
C        0.8634534208   -0.2161278559    1.8470700245
C        4.2373391482   -2.1651765811    4.1486927852
C        5.7281383702   -3.6102716405    2.9005260931
C        2.8292847410   -1.6439767760    2.0548688362
C        1.8779748236   -0.7775463467    2.6351328430
C        3.9262528502   -2.2756264943    2.8111664720
N        4.8000085815   -3.1118295343    2.1214577181
O        1.8832753539   -0.4405937457    3.9576888985
S        5.6381230576   -3.1102813978    4.5766722251
H        1.6265602645   -1.5668417253   -1.1629030061
H       -0.0264881902   -0.0497280456   -0.1096538719
H        3.4055369064   -2.5657799050    0.1629730372
H        0.1336698093    0.4485450503    2.2922887415
H        3.7008309345   -1.5738681931    4.8741266228
H        6.4958728606   -4.2827174340    2.5359887417
H        1.1472326450    0.1643673052    4.1501095579
