25

C      0.86858   -0.56501    2.17293
C     -0.01953   -1.55137    1.74502
C      2.10311   -0.91375    2.73190
C      0.33166   -2.89940    1.87865
C      7.62403   -3.18297    4.55837
C      5.69222   -3.16317    5.65187
C      6.96799   -3.69581    5.71467
C      2.46406   -2.26230    2.87052
C      1.55775   -3.25095    2.43662
C      4.51895   -1.71812    3.96729
N      6.81844   -2.40763    3.83369
N      5.65024   -2.38793    4.51566
N      7.54350   -4.48642    6.73156
O      3.64405   -2.69823    3.39605
Cl     1.98296   -4.94027    2.60514
H      0.60965    0.48539    2.07305
H     -0.97755   -1.28342    1.30962
H      2.78027   -0.12846    3.04808
H     -0.34377   -3.68436    1.55275
H      8.64730   -3.34617    4.24083
H      4.82997   -3.27828    6.29424
H      3.98418   -1.17227    4.75363
H      4.88855   -1.02967    3.20319
H      8.23606   -5.13046    6.36235
H      6.84807   -5.01545    7.24811
