25

C     -4.37360   -0.99396   -5.72398
C     -3.45610   -1.93934   -5.24367
C     -2.97455    0.78661   -4.79970
C     -2.06029   -0.16135   -4.32299
C     -4.10525    0.34535   -5.48697
C     -2.32739   -1.52298   -4.55914
C      2.87273    1.99412   -2.89012
C      2.21462    3.26309   -2.33320
C      0.68470    1.54837   -2.62716
C     -0.62878    1.49668   -3.38416
O      1.77226    1.31094   -3.49517
O      0.85297    2.86446   -2.09593
O     -0.92164    0.12458   -3.64015
F     -4.97665    1.28502   -5.94023
F     -1.44718   -2.44158   -4.09607
H     -5.26694   -1.28806   -6.26402
H     -3.61218   -3.00249   -5.39772
H     -2.83139    1.85007   -4.65308
H      3.62320    2.18172   -3.65968
H      3.31122    1.38169   -2.09000
H      2.66255    3.60081   -1.39393
H      2.22438    4.08362   -3.05904
H      0.68635    0.81658   -1.80375
H     -0.52639    2.06011   -4.31854
H     -1.41104    1.94936   -2.76368
