28

C      2.59041   -4.48447   -0.92752
C      2.03426   -5.54366   -1.65333
C      0.38386   -3.76068   -0.28837
C      1.77271   -3.57624   -0.24257
C     -0.19187   -4.81175   -1.00261
C      0.65554   -5.68903   -1.69068
C     -2.44264   -7.80799    2.47762
C     -1.29484   -6.85859    2.83026
C     -2.28557   -6.05536    0.96505
C      2.36330   -2.41386    0.52325
C     -2.16212   -6.10547   -0.55096
O     -3.11923   -7.13165    1.40588
O     -1.02071   -6.22969    1.57616
O     -1.56345   -4.90976   -1.07191
F      0.11305   -6.70722   -2.41417
H      3.67081   -4.36822   -0.90030
H      2.65496   -6.24960   -2.19733
H     -0.28419   -3.08797    0.24337
H     -2.07381   -8.77736    2.12262
H     -3.14432   -7.96329    3.30234
H     -1.60250   -6.11227    3.57640
H     -0.38588   -7.36044    3.16644
H     -2.73314   -5.10127    1.28701
H      2.22732   -1.47246   -0.02225
H      1.88481   -2.29640    1.50090
H      3.43597   -2.54950    0.68734
H     -3.16549   -6.14649   -0.97940
H     -1.60897   -7.00070   -0.84413
