25

C      5.84955   -3.09552    0.16251
C      5.99861   -1.89586   -0.54174
C      5.00563   -3.15263    1.27223
C      5.30155   -0.75461   -0.13685
C      6.48132   -3.96398    4.89100
C      6.49423   -1.89980    4.07940
C      7.34603   -2.93743    4.41519
C      4.30046   -2.01776    1.68560
C      4.45662   -0.81886    0.97388
C      3.99113   -1.67368    4.01819
N      5.19993   -3.59536    4.84583
N      5.21803   -2.32926    4.37156
N      8.75711   -2.95983    4.39142
O      3.44817   -2.11618    2.76395
Cl     3.58160    0.61703    1.47585
H      6.39158   -3.98385   -0.14966
H      6.65186   -1.84354   -1.40824
H      4.87991   -4.06424    1.84864
H      5.40245    0.18119   -0.67784
H      6.74958   -4.94253    5.27278
H      6.68283   -0.91813    3.66652
H      3.22852   -1.91998    4.75509
H      4.17465   -0.59605    3.99234
H      9.14050   -2.32253    3.70071
H      9.11756   -3.89189    4.21319
