23

C      2.06598   -0.95404   -0.07378
C      0.84268   -0.54922    0.46908
C      3.04576   -1.48727    0.75930
C      0.61900   -0.67996    1.83971
C      2.82339   -1.63095    2.14139
C      1.58822   -1.21905    2.69862
C      3.93494   -2.20079    2.91129
C      5.78564   -2.95771    3.57624
C      7.22658   -3.34544    3.58328
C      1.25794   -1.28837    4.15672
N      5.16355   -2.37928    2.49005
N      5.00296   -3.13796    4.61635
O      3.75807   -2.63380    4.17720
Br     2.05834    0.25966    5.14538
H      2.25562   -0.85492   -1.13886
H      0.06931   -0.13051   -0.16908
H      4.00173   -1.80462    0.35679
H     -0.32597   -0.34821    2.26224
H      7.85009   -2.46678    3.39391
H      7.49909   -3.78100    4.54582
H      7.42329   -4.07080    2.78834
H      1.64714   -2.16283    4.66546
H      0.18763   -1.19405    4.32473
