29   

C        1.1810831755   -1.0583163587    0.1876746290
C        1.5194900474   -2.2084602399    0.9033976456
C        1.0412919640    0.1594293097    0.8575808270
C        1.7080418038   -2.1403058743    2.2881204877
C        1.2264226615    0.2237800415    2.2439127138
C        2.0240980277   -0.0058667005    6.3769820882
C        2.9855599922   -1.0462667895    6.1364735692
C        1.5446823017   -0.9304297242    2.9879252601
C        1.2015942392    0.0118984549    5.2870464126
C       -0.0428085619    0.8342774760    5.2069153462
C       -2.1699144761    1.5721066428    4.2050669638
C       -1.4040191061   -0.7688390060    3.8662412250
N        2.7639280542   -1.5834909137    4.9650979907
N        1.7321341875   -0.8968843487    4.3879068174
N       -1.1020427364    0.5851179209    4.3243204137
O       -0.1681579353    1.7764317741    5.9949470229
H        1.0370372270   -1.1094058971   -0.8859598210
H        1.6397090688   -3.1548163542    0.3875514942
H        0.7952820403    1.0578649061    0.3023880926
H        1.9763100525   -3.0377516027    2.8353243902
H        1.1342543872    1.1837451896    2.7382054050
H        1.9198682661    0.5863484130    7.2789607612
H        3.7543248540   -1.3621589850    6.8321972872
H       -2.7664416226    1.3827235801    3.3070250659
H       -1.7514602703    2.5802533161    4.1185838805
H       -2.8236460535    1.5312790566    5.0823045966
H       -2.4648877268   -0.9893322157    4.0222537926
H       -0.8430276350   -1.5189591269    4.4319723049
H       -1.1833424816   -0.8778817728    2.8002992224
29   

C        1.1785134752   -1.0251615013    0.1711063450
C        1.5294999920   -2.1732829212    0.8838191123
C        1.0291445544    0.1896311861    0.8437897550
C        1.7195559839   -2.1063749230    2.2684948208
C        1.2166104806    0.2528584102    2.2296629165
C        1.9544486289   -0.0383990348    6.3960296246
C        2.9231814979   -1.0731620655    6.1580676381
C        1.5453289983   -0.8999130530    2.9719608043
C        1.1649125257    0.0005662406    5.2839304068
C       -0.0354678080    0.8745839356    5.1241344206
C       -2.1577772513    1.5577970440    4.0643944785
C       -1.4164958959   -0.8158034106    3.9160417295
N        2.7423687612   -1.5742937315    4.9634550737
N        1.7287160745   -0.8712500517    4.3734629259
N       -1.1106163599    0.5655782733    4.2808767704
O       -0.0809562703    1.9386467130    5.7490483772
H        1.0323740509   -1.0751237498   -0.9022815498
H        1.6575567285   -3.1173011204    0.3656443008
H        0.7741497884    1.0872537430    0.2913168681
H        1.9960070297   -3.0030993491    2.8127253050
H        1.1195412945    1.2129143229    2.7227261436
H        1.8340425050    0.5470871620    7.3001335160
H        3.6698688466   -1.4083021085    6.8686698269
H       -2.7560617990    1.2953820051    3.1861214539
H       -1.7204886784    2.5451737229    3.8837641588
H       -2.8143207059    1.6121067912    4.9387377577
H       -2.4802626853   -1.0194794172    4.0750377181
H       -0.8646993234   -1.5276290265    4.5378526814
H       -1.1820021367   -0.9996263178    2.8632510094
29   

C        1.1603861146   -0.9999737707    0.1836517269
C        1.5137709735   -2.1410890864    0.9061728974
C        1.0249139681    0.2231456797    0.8434068227
C        1.7184893594   -2.0590706256    2.2880980578
C        1.2280994093    0.3017905907    2.2260207247
C        1.9367856059   -0.0058134562    6.4218511260
C        2.8966546100   -1.0511187798    6.1917341012
C        1.5571934226   -0.8439178451    2.9800179764
C        1.1735022961    0.0527941478    5.2934849039
C        0.0269390464    0.9823926843    5.0549213552
C       -2.0991990067    1.6164623521    3.9580143687
C       -1.4181045368   -0.7822573497    4.0452585143
N        2.7411295999   -1.5287114243    4.9836399014
N        1.7509629454   -0.8029417044    4.3808963546
N       -1.0849922725    0.6201139623    4.2841670285
O        0.0913661450    2.1411820182    5.4759504359
H        1.0020436537   -1.0614361845   -0.8873833765
H        1.6317573347   -3.0915797848    0.3976170677
H        0.7691254023    1.1159998490    0.2835841127
H        1.9953726227   -2.9513911958    2.8391936747
H        1.1451064662    1.2706996754    2.7040409287
H        1.8148322542    0.5825653888    7.3235694132
H        3.6215935507   -1.4070549861    6.9146331312
H       -2.6662828303    1.3048141986    3.0751975899
H       -1.6373222682    2.5818029855    3.7270432629
H       -2.7891302820    1.7425148998    4.7984483946
H       -2.4880201815   -0.9479344952    4.2069443948
H       -0.8883854065   -1.4449195869    4.7369827554
H       -1.1724042008   -1.0669430099    3.0176503179
29   

C        1.1849342673   -1.0306233457    0.1575150283
C        1.5380526629   -2.1818634766    0.8636536443
C        1.0728027055    0.1871025699    0.8308612410
C        1.7644821031   -2.1154116378    2.2431448824
C        1.2985177147    0.2504710082    2.2105832099
C        1.9699432030   -0.1940850724    6.4345211704
C        2.9213785560   -1.2421973285    6.1814078983
C        1.6260216053   -0.9057915067    2.9500889376
C        1.2447127771   -0.0707515946    5.2871170736
C        0.1549721515    0.9173344362    5.0037230148
C       -1.9880197669    1.5424780548    3.9163826383
C       -1.3751373296   -0.8652329957    4.1725386703
N        2.8000511523   -1.6533257381    4.9450380800
N        1.8384089579   -0.8837426295    4.3497872294
N       -1.0058512260    0.5406638124    4.3171960461
O        0.3357994361    2.1149169581    5.2399922055
H        1.0091962689   -1.0797856403   -0.9114170176
H        1.6385871069   -3.1283917775    0.3441644728
H        0.8184546907    1.0883774396    0.2840054827
H        2.0398089677   -3.0164964623    2.7804664224
H        1.2370418095    1.2182929946    2.6938979218
H        1.8391491998    0.3613070678    7.3554363102
H        3.6186851691   -1.6449321323    6.9069268061
H       -2.4994572213    1.2225388374    3.0031646086
H       -1.5117374827    2.5042961558    3.7014418887
H       -2.7287157500    1.6830161428    4.7098825501
H       -2.4514620577   -0.9907564467    4.3274845752
H       -0.8729098559   -1.4915508954    4.9167858893
H       -1.1203942977   -1.2268883370    3.1715681139
29   

C        1.2116179959   -1.0525871093    0.1183697321
C        1.5958830946   -2.1884329732    0.8326285093
C        1.0689199867    0.1664784618    0.7828614063
C        1.8231303763   -2.1053955499    2.2111187933
C        1.2953539701    0.2464896123    2.1615583349
C        1.8601000951   -0.2851013772    6.4368228027
C        2.8451556672   -1.3023503157    6.1864108370
C        1.6553656546   -0.8944331622    2.9104220910
C        1.2135677790   -0.1039027503    5.2510641705
C        0.1515225683    0.9037023445    4.9194406818
C       -2.0580625924    1.4612580153    3.9134331878
C       -1.4217695904   -0.9243717205    4.3230460761
N        2.8110995760   -1.6426435572    4.9232045906
N        1.8712832429   -0.8589279695    4.3103314219
N       -1.0563898526    0.4898110208    4.3462195508
O        0.4045305853    2.1100874189    4.9669861610
H        1.0356913695   -1.1141640383   -0.9498589607
H        1.7200480529   -3.1359821194    0.3202388697
H        0.7913637882    1.0571258950    0.2299162609
H        2.1222373140   -2.9959551380    2.7531107422
H        1.2134243759    1.2188436707    2.6315962526
H        1.6680367762    0.2204474325    7.3753311782
H        3.5047338686   -1.7335087501    6.9306407614
H       -2.0893933093    1.5030461998    2.8205220487
H       -1.8475650647    2.4658019235    4.2932707845
H       -3.0466833006    1.1788334908    4.2889058158
H       -2.5035058922   -1.0432778223    4.4397382881
H       -0.9520388404   -1.4725786537    5.1460643149
H       -1.1201854275   -1.3783620099    3.3738657062
29   

C        1.3386143320   -1.1080804197    0.0239427772
C        1.7233572826   -2.2224887017    0.7699892952
C        1.1645488100    0.1217188815    0.6598826197
C        1.9211869411   -2.1067367683    2.1505499971
C        1.3610763038    0.2342761399    2.0411067518
C        1.6587389230   -0.4156302312    6.3846715322
C        2.6701294621   -1.4134620875    6.1669536685
C        1.7247100498   -0.8831917721    2.8224564765
C        1.1899171973   -0.1014393362    5.1446022832
C        0.1405804474    0.9081074520    4.7721946150
C       -2.1857522155    1.4488428654    4.0879206036
C       -1.5334832197   -0.9162160960    4.6171870660
N        2.7852747440   -1.6479724382    4.8844852630
N        1.9169162870   -0.8176668693    4.2259872598
N       -1.1596729348    0.4883401186    4.4825371690
O        0.4462165882    2.0917545157    4.6070035900
H        1.1865017206   -1.1943555188   -1.0462019870
H        1.8709515920   -3.1789657263    0.2809843894
H        0.8869566893    0.9968258383    0.0826781906
H        2.2205528498   -2.9836812669    2.7139572940
H        1.2596254287    1.2171667718    2.4810729395
H        1.3414948805   -0.0050026067    7.3353271036
H        3.2421654459   -1.9066639652    6.9443601378
H       -2.2954982259    1.4540340639    2.9991680084
H       -1.9374989766    2.4615979185    4.4212004217
H       -3.1464704103    1.1884790207    4.5430228174
H       -2.6069188566   -1.0126871905    4.8073109564
H       -1.0163039429   -1.3870940705    5.4591118729
H       -1.2901329589   -1.4598598481    3.6986130541
29   

C        1.6263291688   -1.0431122935   -0.1313877287
C        1.8642153820   -2.1901652656    0.6253307270
C        1.5024681183    0.1911380387    0.5078249546
C        1.9626370126   -2.1012446833    2.0180940706
C        1.6033888256    0.2768394811    1.9017961936
C        1.3171901890   -0.6858023865    6.2323269334
C        2.3339257548   -1.6826918695    6.0596398123
C        1.8132276744   -0.8708930565    2.6928239164
C        1.1108955451   -0.1518180714    4.9932783361
C        0.0592284850    0.8472490384    4.6035484399
C       -2.2985965106    1.6004437832    4.5807613986
C       -1.7428009083   -0.7637005999    5.1856591388
N        2.6486206757   -1.7644868866    4.7939379350
N        1.9070760131   -0.8366558515    4.1082084460
N       -1.2889772444    0.5860395234    4.8630690182
O        0.3782588206    1.9764862922    4.2209970149
H        1.5498369553   -1.1086198883   -1.2110034781
H        1.9744793052   -3.1515163428    0.1359918666
H        1.3393237194    1.0903178647   -0.0759053338
H        2.1478662811   -3.0058214144    2.5866981363
H        1.5560441885    1.2606211197    2.3453908555
H        0.8234324486   -0.4150902127    7.1573977364
H        2.7669947698   -2.2834304946    6.8510227670
H       -2.5444617881    1.5999321103    3.5140113836
H       -1.9429465757    2.5960241346    4.8650162014
H       -3.2091772902    1.4011255528    5.1543300523
H       -1.8813583263   -0.8712775856    6.2655293592
H       -1.0328957863   -1.5217246872    4.8395789608
H       -2.6923064899   -0.9728610889    4.6826829976
29   

C        1.7984647358   -1.0503161110   -0.2420558788
C        1.9322401163   -2.2076492138    0.5248083186
C        1.7142565396    0.1907967846    0.3911171505
C        1.9647752037   -2.1209235352    1.9207148003
C        1.7523249872    0.2736793900    1.7886028248
C        1.2079701663   -0.7906832495    6.1002830749
C        2.2802383948   -1.7296301649    5.9483825955
C        1.8526332465   -0.8824353994    2.5867718885
C        1.0225179113   -0.2308855503    4.8669839108
C       -0.0455616581    0.7431753639    4.4728855156
C       -2.3418995125    1.6380938860    4.7066580538
C       -1.8321730775   -0.6975340327    5.4336687799
N        2.6537923690   -1.7577972259    4.6977341350
N        1.8956230142   -0.8500845275    4.0033158437
N       -1.3520148908    0.5943916527    4.9519176571
O        0.2399787320    1.8000665705    3.9018810902
H        1.7730163542   -1.1137289275   -1.3241580180
H        2.0140522249   -3.1746824814    0.0411815526
H        1.6322648422    1.0966830167   -0.1990694834
H        2.0728210806   -3.0311737202    2.5000130996
H        1.7464332241    1.2579255985    2.2349870383
H        0.6729783365   -0.5659903677    7.0145299585
H        2.7096167248   -2.3292034717    6.7426480138
H       -2.7159805378    1.5689725304    3.6801559296
H       -1.9081518612    2.6309604465    4.8634323445
H       -3.1838517005    1.5347405881    5.3983005973
H       -1.8191463870   -0.7268316374    6.5272502546
H       -1.2237434404   -1.5203937632    5.0444727311
H       -2.8553056880   -0.8744267956    5.0867874530
29   

C        1.9257068048   -1.1729009267   -0.2479145779
C        3.0451231391   -1.5081406499    0.5153433655
C        0.7225355076   -0.8639150866    0.3883947100
C        2.9593840042   -1.5308297391    1.9122510358
C        0.6414361589   -0.8811534537    1.7857519544
C        0.9761216089   -1.1456929906    6.0674929662
C        1.9563097162   -2.1880966449    5.9283468019
C        1.7632929540   -1.2032971600    2.5793235281
C        0.9058705891   -0.5408580848    4.8435311090
C        0.1120838850    0.6510356256    4.4087066115
C       -1.8143331385    2.1851498883    4.6622474007
C       -1.9236658654   -0.1203832898    5.6194249301
N        2.3894329879   -2.2186302669    4.6957196599
N        1.7121578722   -1.2573757605    3.9944477526
N       -1.1446094675    0.9233645218    4.9610503444
O        0.6328949512    1.5145926555    3.7006846186
H        1.9894430195   -1.1556240445   -1.3300876248
H        3.9824704107   -1.7505911631    0.0275829807
H       -0.1526038672   -0.6130489753   -0.2002992443
H        3.8355262036   -1.7945270487    2.4941779045
H       -0.3149545485   -0.6610370399    2.2405661228
H        0.4723722245   -0.8590375342    6.9816563819
H        2.3033345511   -2.8341899306    6.7263914595
H       -2.2994408048    2.1324656459    3.6823969536
H       -1.1009072568    3.0156360186    4.6636421445
H       -2.5713847100    2.4033654379    5.4220201615
H       -1.8024365408   -0.0606111045    6.7052022191
H       -1.6247472951   -1.1160391820    5.2758517767
H       -2.9856207933   -0.0106361687    5.3771390158
29   

C        2.0054744295   -1.2581006396   -0.2681348915
C        3.1293816516   -1.4786726745    0.5299586787
C        0.7620247317   -1.0479437270    0.3309355658
C        3.0074782069   -1.4860648425    1.9242878105
C        0.6450289673   -1.0487475263    1.7260074997
C        0.8671928899   -1.2211416055    6.0114058347
C        1.8935026655   -2.2214484840    5.9023567293
C        1.7691040644   -1.2549207112    2.5525014484
C        0.8075588372   -0.6158368565    4.7854583254
C        0.0318693726    0.5782836466    4.3326258500
C       -1.7720694773    2.2468136919    4.6254926633
C       -1.9389379220    0.0325154330    5.7637883773
N        2.3751877332   -2.2226984774    4.6883312642
N        1.6818332730   -1.2894420980    3.9657088271
N       -1.1540328392    0.9692785091    4.9671066589
O        0.4936794417    1.3300982378    3.4714707121
H        2.0974655722   -1.2521698655   -1.3483479982
H        4.0978738844   -1.6432556245    0.0714947319
H       -0.1153571487   -0.8847416088   -0.2844559965
H        3.8860374062   -1.6604581610    2.5353399447
H       -0.3348123829   -0.9006598624    2.1608932739
H        0.3404056734   -0.9552274634    6.9181585693
H        2.2389829447   -2.8569120664    6.7095642532
H       -2.3356563126    2.1566452630    3.6915008557
H       -1.0131284699    3.0277467351    4.5113945797
H       -2.4518567679    2.5662260245    5.4217098705
H       -1.7148982915    0.1532032677    6.8279685277
H       -1.7447737985   -1.0022863216    5.4637383502
H       -3.0085563211    0.2073973396    5.6093133865
29   

C        2.2224743471   -1.5375940446   -0.1618905641
C        3.3261769530   -1.6084206852    0.6902662682
C        0.9381921005   -1.4303232669    0.3760987481
C        3.1430163961   -1.5689024326    2.0772619872
C        0.7597367519   -1.3837372067    1.7640267439
C        0.7965032967   -1.3599887392    6.0537373493
C        1.8710700611   -2.3127624285    6.0107982576
C        1.8608407798   -1.4373285148    2.6423798080
C        0.7604808170   -0.7808675991    4.8125864785
C        0.0067297344    0.4053014798    4.3073603893
C       -1.6918661317    2.1881137150    4.5394729673
C       -1.8933980791    0.1146387098    5.9082333538
N        2.4146780502   -2.3053175660    4.8241943415
N        1.7132889139   -1.4207112316    4.0503966737
N       -1.1162754484    0.9177269994    4.9716869652
O        0.3959766508    1.0184575997    3.3103786921
H        2.3620290372   -1.5672796100   -1.2365613007
H        4.3259338333   -1.6925867429    0.2796315472
H        0.0773689966   -1.3820242434   -0.2808704976
H        4.0050868878   -1.6274081127    2.7322064792
H       -0.2456042656   -1.3112976446    2.1591615835
H        0.2344570425   -1.1018477449    6.9404712389
H        2.2061485013   -2.9187638779    6.8446203629
H       -2.2995742953    2.0424179200    3.6408488458
H       -0.9031184828    2.9164985934    4.3240525935
H       -2.3202298969    2.6117421638    5.3293265469
H       -1.5668868217    0.3006003497    6.9359226278
H       -1.8066433838   -0.9521766127    5.6784649243
H       -2.9564702563    0.3644870597    5.8306453355
29   

C        2.7177044259   -1.0032387435   -0.1051371482
C        2.7100288688    0.0224192266    0.8431779659
C        2.2354972022   -2.2678265222    0.2385922957
C        2.2105312037   -0.2145573075    2.1296981410
C        1.7437701852   -2.5020955444    1.5277799796
C        0.6017362996   -1.5293681572    5.8950335198
C        1.3494785261   -2.7411250780    5.7085395694
C        1.7020198163   -1.4776197396    2.4912414470
C        0.5018802141   -0.9512793892    4.6548423656
C       -0.3477061885    0.1682939285    4.1472933270
C       -2.0254670655    1.9662521211    4.4101845664
C       -0.7890525111    1.1503543510    6.4123058838
N        1.6688269825   -2.8682811127    4.4505721580
N        1.2167671990   -1.7581934030    3.7907118083
N       -1.0823385887    1.0142756057    4.9918313983
O       -0.4298266536    0.3979882272    2.9376911475
H        3.0975696076   -0.8189793203   -1.1036147002
H        3.0885944529    1.0043034219    0.5835521043
H        2.2397781459   -3.0689014295   -0.4917898130
H        2.2164846310    0.5896210824    2.8550493444
H        1.3747253268   -3.4872543929    1.7898184849
H        0.1365178630   -1.2440510612    6.8272687577
H        1.5790683192   -3.4624631607    6.4842763101
H       -2.7469312825    2.3005475524    5.1624642742
H       -2.5942940147    1.4989452768    3.5994133166
H       -1.4913704773    2.8369086739    4.0169006126
H        0.2817463391    1.0256028729    6.6024162419
H       -1.3631786839    0.4231618984    6.9945771383
H       -1.0511938853    2.1546973593    6.7603844496
29   

C        2.7151818213   -0.9670808589   -0.0653919977
C        2.5354533388    0.0698106170    0.8526576426
C        2.3839395321   -2.2749098911    0.2940425121
C        2.0157551064   -0.2002784818    2.1243848874
C        1.8714649077   -2.5418222823    1.5688072858
C        0.4771515265   -1.6014809881    5.8742296613
C        1.2827885951   -2.7811760392    5.7205427493
C        1.6594508246   -1.5105425552    2.5027392756
C        0.3790611164   -1.0498206716    4.6238956977
C       -0.4803542886    0.0571704468    4.1083579227
C       -2.0709357085    1.9258764575    4.4155419037
C       -0.6022853629    1.2399543824    6.3093940370
N        1.6457208640   -2.9031666977    4.4727785886
N        1.1583423117   -1.8218538512    3.7898414179
N       -1.0907865942    0.9897053643    4.9585472767
O       -0.7360489795    0.1454218243    2.9048340872
H        3.1116569985   -0.7578942121   -1.0524710005
H        2.7975737137    1.0859590419    0.5811765851
H        2.5216418210   -3.0848521028   -0.4132407794
H        1.8954126905    0.6174896231    2.8235597508
H        1.6195991127   -3.5606280323    1.8410937090
H       -0.0257169731   -1.3112799912    6.7862164389
H        1.5226126087   -3.4844871387    6.5096017186
H       -2.6817152104    2.3494460283    5.2191046849
H       -2.7495195224    1.4162451334    3.7235299552
H       -1.5649545264    2.7396216405    3.8865051044
H        0.4646813985    1.0091270380    6.3913460279
H       -1.1667150945    0.6489816432    7.0370724033
H       -0.7120134864    2.2995131072    6.5620938485
29   

C        2.7096309308   -0.8508766518    0.0091924672
C        2.4022474946    0.1758484482    0.9039280625
C        2.5039962562   -2.1797633651    0.3840920175
C        1.8809923832   -0.1259942214    2.1676850888
C        1.9894993037   -2.4782453290    1.6510898510
C        0.3862426929   -1.6291649888    5.9016336363
C        1.2522255888   -2.7689281769    5.7717524398
C        1.6512608757   -1.4603045596    2.5627036229
C        0.3014002958   -1.0834634010    4.6494969952
C       -0.5526318550    0.0291167103    4.1342942633
C       -2.0308498539    1.9835831871    4.4795648002
C       -0.4114845656    1.3277596879    6.2611564355
N        1.6703592972   -2.8616637796    4.5378591501
N        1.1515583578   -1.8024286367    3.8430418466
N       -1.0432690168    1.0321740464    4.9798364570
O       -0.9594893640    0.0132212175    2.9705622574
H        3.1082828469   -0.6173113446   -0.9715633138
H        2.5681390097    1.2090621611    0.6209216222
H        2.7411625424   -2.9820413693   -0.3053683459
H        1.6692152381    0.6902861986    2.8458979421
H        1.8355159773   -3.5136912879    1.9335857152
H       -0.1543524642   -1.3471553170    6.7953058299
H        1.4974224672   -3.4646837635    6.5658287107
H       -2.5660241837    2.4504914429    5.3124393767
H       -2.7753745603    1.4791308920    3.8550067142
H       -1.5394454636    2.7641558929    3.8902216912
H        0.6365847052    1.0114678131    6.2684065331
H       -0.9486056382    0.8334158944    7.0762398578
H       -0.4136148332    2.4070658358    6.4445228547
29   

C        2.7238864404   -0.8071274242    0.0995674749
C        2.2954218920    0.1952786684    0.9711274261
C        2.6478715675   -2.1441215229    0.4929286163
C        1.7832330315   -0.1393137694    2.2301758629
C        2.1413433896   -2.4753469241    1.7550430113
C        0.3597089890   -1.7528557660    5.9562704629
C        1.2936074658   -2.8400160591    5.8438724758
C        1.6834363658   -1.4847171402    2.6448728003
C        0.2767980633   -1.2081992148    4.7051343263
C       -0.5889520402   -0.0975406828    4.1991355012
C       -1.9427381306    1.9420125158    4.5760695918
C       -0.1787751891    1.2961746706    6.2226844304
N        1.7581551289   -2.8922480959    4.6234713593
N        1.1959826240   -1.8599714072    3.9214251208
N       -0.9497800597    0.9718971895    5.0267874372
O       -1.1541739580   -0.2030682764    3.1093466093
H        3.1168220181   -0.5480844136   -0.8771394192
H        2.3621340307    1.2358743308    0.6743606218
H        2.9801768219   -2.9277246691   -0.1785265995
H        1.4854896729    0.6669759344    2.8868835036
H        2.0889592993   -3.5175139074    2.0499038687
H       -0.2130799104   -1.4897915457    6.8362359707
H        1.5554142596   -3.5276464864    6.6397153447
H       -2.3962334028    2.4476953656    5.4343160606
H       -2.7498241092    1.4495368440    4.0240590184
H       -1.4732665239    2.6903249969    3.9297107865
H        0.8444814332    0.9131970250    6.1521957143
H       -0.6604812911    0.8801450812    7.1126618364
H       -0.1000114971    2.3817741208    6.3399766053
29   

C        2.6049870108   -0.6382009216    0.0643792217
C        1.2306455080   -0.4897903151    0.2581091103
C        3.3814966792   -1.2301993054    1.0603585026
C        0.6356135830   -0.9220449487    1.4499075677
C        2.7839751659   -1.6560897004    2.2514608523
C        0.0811621868   -1.9099748186    5.7782411902
C        0.9107422302   -3.0596442084    5.5670897252
C        1.4024336106   -1.4918911243    2.4847879678
C        0.0332006179   -1.2568449377    4.5782598119
C       -0.6284140867    0.0574184245    4.2958157052
C       -1.3366281374    2.3159831513    5.0218450746
C        0.5126846848    1.1413279249    6.2229969035
N        1.3637853318   -3.0446308979    4.3427589574
N        0.8466647000   -1.9444739466    3.7077947572
N       -0.5495155190    1.1036350643    5.2219612345
O       -1.4220966647    0.1793742016    3.3577346148
H        3.0646825960   -0.3070268805   -0.8600774811
H        0.6171259748   -0.0505510725   -0.5205665519
H        4.4473239612   -1.3637607636    0.9123174037
H       -0.4391371078   -0.8444630714    1.5332139671
H        3.4032584919   -2.1172018229    3.0128270912
H       -0.4154773498   -1.6344162566    6.7001807030
H        1.1352556423   -3.8187967709    6.3073552725
H       -1.4244192886    2.8722280160    5.9603619569
H       -2.3505758620    2.0719912543    4.6888797276
H       -0.8586750786    2.9563898699    4.2736118110
H        1.3622724425    0.5168577689    5.9280754750
H        0.1366065537    0.8019196056    7.1926895323
H        0.8966812791    2.1609764661    6.3291898477
29   

C        2.5800121743   -0.5073564660    0.2194893104
C        1.2136096152   -0.3247747482    0.4360426485
C        3.3422061108   -1.1917927891    1.1658236776
C        0.6126919584   -0.8141134773    1.6022843025
C        2.7389785122   -1.6777688122    2.3308735568
C       -0.0629953144   -2.0293016000    5.8245350660
C        0.8328258818   -3.1328169160    5.6318099102
C        1.3654082626   -1.4826682294    2.5889623909
C       -0.0835061521   -1.3596964462    4.6353602116
C       -0.7724555528   -0.0572251584    4.3434924891
C       -1.2516024177    2.3042369311    4.9099896844
C        0.6656507706    1.1174930403    5.9965415817
N        1.3457371447   -3.0687610075    4.4315836115
N        0.8049128516   -1.9821670550    3.7929969639
N       -0.5058839640    1.0692969002    5.1264903632
O       -1.7060948214   -0.0077137179    3.5378058060
H        3.0444736049   -0.1297132335   -0.6845983530
H        0.6105439629    0.1872004789   -0.3056304759
H        4.4021195987   -1.3493861493    0.9998334123
H       -0.4567843896   -0.6968903984    1.6987356079
H        3.3506620438   -2.2069139294    3.0531816276
H       -0.6099042192   -1.7866845788    6.7272328615
H        1.0594421889   -3.8952971530    6.3680097854
H       -1.1945702228    2.9437620980    5.7963410542
H       -2.3098575926    2.0944961296    4.7240402024
H       -0.8391782789    2.8476270205    4.0538099281
H        1.4331342652    0.4041668112    5.6794990320
H        0.3817138678    0.9001242575    7.0304834905
H        1.1259317691    2.1098313288    5.9552979113
29   

C        2.5882934693   -0.2850604688    0.4920081871
C        1.2325746662   -0.0532307336    0.7272839765
C        3.3117984156   -1.0959080746    1.3669758451
C        0.6045623480   -0.6194111101    1.8426687415
C        2.6809748323   -1.6623636033    2.4803927354
C       -0.4126621015   -2.3108316238    5.7772511579
C        0.4998905388   -3.3972912853    5.5474405138
C        1.3199103606   -1.4215023906    2.7572735066
C       -0.2064912526   -1.4432217280    4.7471847257
C       -0.9112521340   -0.1459593094    4.4653310482
C       -0.9539333874    2.3371166677    4.4982191669
C        0.9861327771    1.0860644345    5.4842517188
N        1.1768147855   -3.1760046959    4.4493660998
N        0.7277699842   -1.9998659459    3.9088703224
N       -0.2993362074    1.0660344812    4.7928848424
O       -1.9747776908   -0.1378004425    3.8403775780
H        3.0739747256    0.1536534541   -0.3725344466
H        0.6589957044    0.5580723146    0.0392770220
H        4.3630390349   -1.2892998049    1.1846290582
H       -0.4574255782   -0.4491214980    1.9570173667
H        3.2593680595   -2.2902528907    3.1491915412
H       -1.1130970803   -2.2096383948    6.5971033664
H        0.6199015573   -4.2620530016    6.1897940024
H       -0.7745043341    3.0547270397    5.3048884818
H       -2.0386800431    2.2182835700    4.4106877781
H       -0.5679117103    2.7492490918    3.5608909676
H        1.0709134581    0.2556700565    6.1922553792
H        1.0994618414    2.0095692760    6.0604392660
H        1.8040025860    1.0226599354    4.7592659809
29   

C        2.5657583704   -0.2018787584    0.6293874142
C        1.2027022581   -0.0099962095    0.8601638410
C        3.3069065826   -1.0071301589    1.4955430316
C        0.5850567908   -0.6099384342    1.9633633735
C        2.6864975757   -1.6070969065    2.5973221282
C       -0.6029327150   -2.5075558436    5.6866683405
C        0.3458504966   -3.5637486863    5.4584806409
C        1.3197770145   -1.4038268129    2.8700648859
C       -0.2625598471   -1.5171608891    4.8148237542
C       -0.9730050314   -0.2187900299    4.5643216072
C       -0.9149819363    2.2542529191    4.2757004484
C        1.0711878593    1.0424527013    5.1992482706
N        1.1441213210   -3.2299404215    4.4766572498
N        0.7359187914   -2.0097754997    4.0101018349
N       -0.2704491605    0.9902182875    4.6236616486
O       -2.1226996172   -0.2166835826    4.1173351724
H        3.0439503605    0.2634566587   -0.2253930404
H        0.6167756877    0.5971592741    0.1789197917
H        4.3636756875   -1.1698745462    1.3150998336
H       -0.4820959039   -0.4690308909    2.0834285612
H        3.2746672523   -2.2311645292    3.2613317405
H       -1.4100298544   -2.5000830730    6.4090273867
H        0.4030456947   -4.4880414842    6.0217129963
H       -0.6987974147    3.0119585285    5.0354674113
H       -2.0038858013    2.1584610898    4.2220986511
H       -0.5485622186    2.6055742610    3.3064363855
H        1.2205581585    0.2486581829    5.9382565049
H        1.2296366513    1.9927831955    5.7185352324
H        1.8254241023    0.9438456933    4.4122201782
29   

C        2.5241321375   -0.2004584878    0.6642172157
C        1.1577090919   -0.0359435493    0.8980019750
C        3.2863627119   -0.9800961109    1.5358973903
C        0.5576581806   -0.6375896999    2.0100180939
C        2.6835058052   -1.5816774373    2.6464472278
C       -0.6891715222   -2.5977050794    5.6288016251
C        0.2873512059   -3.6314176613    5.4151571101
C        1.3142045088   -1.4042511014    2.9215736020
C       -0.3044776188   -1.5586529115    4.8350289968
C       -1.0105165632   -0.2511427580    4.6457890308
C       -0.9833421662    2.1980076508    4.2375494472
C        1.0831806492    1.0432273533    5.0339437817
N        1.1442281355   -3.2419777831    4.5060625758
N        0.7459152466   -2.0083626394    4.0691247716
N       -0.2999165234    0.9531910462    4.5726246451
O       -2.2195759183   -0.2362045782    4.3993686219
H        2.9891523419    0.2664181244   -0.1970023055
H        0.5567459405    0.5520600535    0.2130687825
H        4.3457927783   -1.1216035069    1.3529310495
H       -0.5112511838   -0.5174437610    2.1405491836
H        3.2860446428   -2.1864415055    3.3155392918
H       -1.5372512143   -2.6290341574    6.3021753782
H        0.3220781303   -4.5794538182    5.9394007609
H       -1.3467266419    2.6855244506    5.1476589954
H       -1.8307870555    2.0199837636    3.5680116418
H       -0.2972513698    2.8752353092    3.7193386229
H        1.3338036517    0.2242631847    5.7157792597
H        1.2364821088    1.9747014284    5.5881033050
H        1.7722699712    1.0233060200    4.1840099563
29   

C        0.8546363132   -1.7885765270    0.3626685326
C        0.1048730425   -2.2844767182    1.4311274127
C        1.9019934833   -0.8981207492    0.6059539272
C        0.3927967130   -1.8788838288    2.7394480177
C        2.1891082293   -0.4961311137    1.9152716121
C        1.6647403879   -0.3243733290    6.5031454353
C        3.0190879091   -0.2545259276    6.0257968514
C        1.4275941735   -0.9580295082    3.0052719738
C        0.8812775643   -0.3899416200    5.3891353612
C       -0.6118978269   -0.4657965447    5.3659277588
C       -2.8150765433   -0.1232875030    4.2914056437
C       -0.8396559016    1.1851902383    3.5099601259
N        3.0267353948   -0.3358207535    4.7199702257
N        1.7330983056   -0.5135367663    4.3132439591
N       -1.3769435319    0.1143201040    4.3461658178
O       -1.1962928435   -1.1337085402    6.2242191178
H        0.6311966257   -2.1018783422   -0.6511781214
H       -0.6974171324   -2.9910124901    1.2490516722
H        2.4952598390   -0.5184146773   -0.2185707682
H       -0.1872976463   -2.3046131252    3.5496535580
H        3.0068935258    0.1939373641    2.0931438484
H        1.3321121442   -0.2858322184    7.5336910137
H        3.8976054641   -0.1289018662    6.6480800602
H       -3.3348540452    0.5420777518    4.9880649199
H       -3.0486461809   -1.1617584425    4.5475069837
H       -3.1905469322    0.0570923334    3.2791972781
H       -0.6069426846    0.8116018437    2.5081175447
H        0.0631408004    1.6229396993    3.9475666386
H       -1.5706765333    1.9949748405    3.4196042714
29   

C        0.8623558102   -1.7919513671    0.3508920120
C        0.0886064771   -2.2597095509    1.4153552110
C        1.9163712069   -0.9096399425    0.5956316187
C        0.3598623559   -1.8342161814    2.7211884008
C        2.1873208276   -0.4887587583    1.9022829405
C        1.6041736327   -0.3244938915    6.4848751905
C        2.9652799404   -0.2839792715    6.0249725773
C        1.4026377675   -0.9232144653    2.9868592469
C        0.8285750224   -0.3507885334    5.3626327906
C       -0.6643652449   -0.3104450103    5.3607007548
C       -2.8736496606    0.0278494169    4.3126757551
C       -0.8723290677    1.1640563860    3.3590272698
N        2.9862446103   -0.3325809476    4.7180305469
N        1.6935603540   -0.4650112989    4.2922380453
N       -1.4234495914    0.1840907541    4.2921956560
O       -1.2704062996   -0.7547579636    6.3405667141
H        0.6521284103   -2.1202519989   -0.6610557584
H       -0.7195896754   -2.9590116500    1.2316010126
H        2.5276221678   -0.5512870186   -0.2253641653
H       -0.2395918463   -2.2323410755    3.5313709692
H        3.0109355708    0.1937793127    2.0826454347
H        1.2609558777   -0.2777641658    7.5118688124
H        3.8392570458   -0.1966093218    6.6600685466
H       -3.3216509590    0.7435785335    5.0094561431
H       -3.1466121017   -0.9874496838    4.6183314143
H       -3.2894692142    0.1956993198    3.3141321150
H       -0.7002464607    0.7110275107    2.3780583310
H        0.0658383525    1.5888611087    3.7294337522
H       -1.5686675940    1.9999599271    3.2376129368
29   

C        0.8873087468   -1.7651231823    0.3516259790
C        0.1188621834   -2.2419083709    1.4162401547
C        1.9320580212   -0.8716722698    0.5962219939
C        0.3865978222   -1.8147713598    2.7224694147
C        2.1999989868   -0.4498577091    1.9030882827
C        1.6345858675   -0.3953455995    6.4913575652
C        2.9930695908   -0.3458594855    6.0258036813
C        1.4212402345   -0.8948101198    2.9874345321
C        0.8486586548   -0.3790486702    5.3747629033
C       -0.6385502552   -0.2458099821    5.4150934510
C       -2.8775400564    0.0826139525    4.4396955493
C       -0.8985719176    1.1028434685    3.3333266793
N        3.0065989281   -0.3354826099    4.7182919507
N        1.7112774910   -0.4421551600    4.2940416128
N       -1.4254931988    0.1820978079    4.3377461105
O       -1.2151247553   -0.4913273187    6.4788148774
H        0.6802169491   -2.0946729893   -0.6605792952
H       -0.6823345445   -2.9490297122    1.2318315674
H        2.5389421222   -0.5059751547   -0.2248145066
H       -0.2088514804   -2.2154755076    3.5343943239
H        3.0172543170    0.2400670070    2.0845000187
H        1.2995614450   -0.3643248489    7.5218632239
H        3.8709062965   -0.2900028284    6.6591291060
H       -3.2654420102    0.8629910548    5.1023696472
H       -3.1672877850   -0.8968768441    4.8341286342
H       -3.3381210414    0.1919987648    3.4527362337
H       -0.7829725684    0.6016689185    2.3677794153
H        0.0628370554    1.5255712098    3.6406218048
H       -1.5831946561    1.9470631607    3.2030032156
29   

C        0.9152333721   -1.7347096659    0.3553894658
C        0.1438539015   -2.2162829301    1.4159741262
C        1.9511328853   -0.8322079796    0.6049408247
C        0.4002469263   -1.7853116362    2.7233813998
C        2.2082265457   -0.4071789967    1.9128873434
C        1.6262930755   -0.4439648094    6.4991537804
C        2.9863042499   -0.3970618368    6.0388559957
C        1.4270359619   -0.8581746198    2.9927128811
C        0.8396798440   -0.3864030081    5.3829921666
C       -0.6360253400   -0.1487654662    5.4518281987
C       -2.8942013574    0.1805674076    4.5326843536
C       -0.9344940126    1.0722098512    3.2990245837
N        3.0038294249   -0.3349458554    4.7332645970
N        1.7089684218   -0.4093213094    4.3016038114
N       -1.4446630991    0.2175520580    4.3677969096
O       -1.1724074236   -0.1844767379    6.5623258979
H        0.7173390459   -2.0673192294   -0.6576668497
H       -0.6506372549   -2.9297841238    1.2272287529
H        2.5600861436   -0.4626429127   -0.2128524674
H       -0.1975391401   -2.1862190461    3.5335861852
H        3.0196212897    0.2883194442    2.0994045732
H        1.2926372812   -0.4204498769    7.5304424834
H        3.8628718268   -0.3752314008    6.6760176511
H       -3.2299908823    1.0319312460    5.1335742537
H       -3.1985221058   -0.7470227037    5.0287871133
H       -3.3905830845    0.2134138851    3.5576499447
H       -0.8650424105    0.5208597388    2.3568715735
H        0.0444826839    1.4902096159    3.5518085377
H       -1.6062119832    1.9232847353    3.1477642869
