23   

C        5.6730080956    1.7888891934    0.1003981704
C        4.7621968001    2.0994474647   -0.9089198237
C        5.4496466624    0.6757919067    0.9105029617
C        3.6365486255    1.2927406435   -1.1114235844
C        4.3223289274   -0.1288530199    0.7065894300
C        3.3976863882    0.1482551491   -0.3220298855
C        1.2947729702   -0.6086300756   -1.5355943706
C        2.1983112263   -0.6870352723   -0.5130619146
C        0.1498756765   -1.5508177978   -1.3304815119
C        1.7411792988   -1.7138808513    0.5142638396
C        0.7974761247   -2.5500336246   -0.3630758953
H        6.5465705488    2.4114521229    0.2575788515
H        4.9248250546    2.9685460519   -1.5360936904
H        6.1504304294    0.4333387792    1.7012638968
H        2.9430645039    1.5678941743   -1.8953836625
H        4.1878375988   -0.9780163156    1.3627691763
H        1.3928431648    0.0317832653   -2.4035005317
H       -0.1844543902   -2.0295844190   -2.2563293198
H       -0.6797784235   -1.0235517148   -0.8483768881
H        1.1923401721   -1.2140118376    1.3188396194
H        2.5457483137   -2.3349317751    0.9172877657
H        0.0736907393   -3.1392944774    0.2087926132
H        1.4143482292   -3.2343527447   -0.9557398523
23   

C        5.6251872772    1.7996903855    0.1449042308
C        4.6500673146    2.1733918060   -0.7806174966
C        5.4784464697    0.6099836666    0.8594551173
C        3.5390799002    1.3507647163   -0.9997260304
C        4.3648115597   -0.2094902389    0.6398796294
C        3.3879415249    0.1268787584   -0.3171525404
C        1.3371914418   -0.6703687598   -1.5777437725
C        2.1913202213   -0.7122278493   -0.5124870485
C        0.1509586881   -1.5591602816   -1.3673495923
C        1.6315449795   -1.6215807353    0.5725220574
C        0.7071266100   -2.4968712264   -0.2867918585
H        6.4886130694    2.4334410922    0.3129710184
H        4.7509535397    3.1036739428   -1.3279006001
H        6.2284837009    0.3192396794    1.5861366058
H        2.7872639208    1.6721798820   -1.7095055634
H        4.2831510677   -1.1239828204    1.2123329403
H        1.5039669880   -0.0916652653   -2.4784202019
H       -0.1453480577   -2.1014095779   -2.2709413651
H       -0.6866548100   -0.9707068327   -0.9792703549
H        1.0570029108   -1.0291445256    1.2918309212
H        2.3843938628   -2.2278833466    1.0831817748
H       -0.0686751064   -3.0125200428    0.2879494775
H        1.3299217880   -3.2479442373   -0.7850187988
23   

C        5.6064575247    1.8011345603    0.1910168170
C        4.5741781048    2.2317006503   -0.6447883245
C        5.5279917061    0.5449680008    0.7958187583
C        3.4763862531    1.3981967030   -0.8885834560
C        4.4264004354   -0.2838141497    0.5517713830
C        3.4032627972    0.1089207824   -0.3287415061
C        1.3999438585   -0.7355738732   -1.6232153897
C        2.2086362474   -0.7352390689   -0.5238182256
C        0.1754733840   -1.5695770751   -1.4049964991
C        1.5561086867   -1.5166423168    0.6072323220
C        0.6429511673   -2.4313664016   -0.2224362824
H        6.4603039276    2.4428116742    0.3769759395
H        4.6202525839    3.2137733093   -1.1014335189
H        6.3205360302    0.2108971246    1.4556596229
H        2.6735525690    1.7559631448   -1.5217312962
H        4.3835903812   -1.2521416086    1.0344930794
H        1.6267470663   -0.2183227673   -2.5482647913
H       -0.0914080070   -2.1764680395   -2.2761168685
H       -0.6610762527   -0.9270571684   -1.1123983685
H        0.9699819741   -0.8388064292    1.2361389535
H        2.2611811881   -2.0933188363    1.2125347706
H       -0.1789038631   -2.8702009985    0.3520486530
H        1.2611733784   -3.2423651466   -0.6229287841
23   

C        5.6030798079    1.7865066291    0.2283389962
C        4.5143769038    2.2706480852   -0.5007980250
C        5.5872197803    0.4740301269    0.7065782343
C        3.4240556432    1.4345542003   -0.7686015091
C        4.4920569348   -0.3559283322    0.4387317631
C        3.4191384829    0.0935790363   -0.3472131755
C        1.4638868173   -0.8143725893   -1.6709744794
C        2.2247493325   -0.7562099141   -0.5408781989
C        0.2049336574   -1.5939534599   -1.4455932323
C        1.4884616942   -1.4034335867    0.6223556556
C        0.5845055219   -2.3605695256   -0.1686581716
H        6.4513198844    2.4301415515    0.4323032731
H        4.5108529129    3.2953096834   -0.8545893124
H        6.4217755519    0.0983330165    1.2874951127
H        2.5737615124    1.8258049730   -1.3144754004
H        4.4847000528   -1.3682040738    0.8248599587
H        1.7464183286   -0.3677551407   -2.6174243922
H       -0.0357374649   -2.2687288808   -2.2733716794
H       -0.6253627084   -0.9065879790   -1.2552964455
H        0.8986378409   -0.6502844555    1.1547258514
H        2.1470638405   -1.9393605372    1.3123691513
H       -0.2789180070   -2.7208003812    0.3994638634
H        1.1926485934   -3.2228484970   -0.4636474977
23   

C        5.6191394057    1.7590145569    0.2332968964
C        4.4691007114    2.2955377495   -0.3517674932
C        5.6606392685    0.4014159337    0.5621453485
C        3.3731114612    1.4688605389   -0.6258677611
C        4.5596094886   -0.4189328191    0.2886672827
C        3.4231676683    0.0917078029   -0.3552662704
C        1.5419297747   -0.9251907314   -1.7143268446
C        2.2263393877   -0.7610091579   -0.5477672208
C        0.2580366514   -1.6650224315   -1.4943969325
C        1.4050403639   -1.2720187919    0.6261761707
C        0.5389247719   -2.2972990266   -0.1209953515
H        6.4713163552    2.3958617838    0.4421013131
H        4.4230331470    3.3523757520   -0.5885753869
H        6.5435723584   -0.0163565691    1.0322445031
H        2.4753295465    1.8930268591   -1.0599536373
H        4.5905296742   -1.4675760699    0.5602389438
H        1.8945422427   -0.5781267384   -2.6788987414
H        0.0618521101   -2.4208340608   -2.2616895157
H       -0.5716897075   -0.9537701749   -1.4336581315
H        0.7952267394   -0.4606125218    1.0363423482
H        2.0121271699   -1.7370874135    1.4089966099
H       -0.3662732672   -2.5874342586    0.4216449403
H        1.1503780708   -3.1919297623   -0.2827718467
23   

C        5.6857165016    1.7095127474    0.0773098382
C        4.4577551155    2.3007012798   -0.2348387146
C        5.7818085594    0.3183512583    0.1799130896
C        3.3289180960    1.4996500358   -0.4439795983
C        4.6504011517   -0.4790411243   -0.0305411496
C        3.4149758020    0.1014554919   -0.3468766136
C        1.7692623636   -1.2603673909   -1.7310388734
C        2.2139742305   -0.7465139839   -0.5519983296
C        0.5074682796   -2.0413948403   -1.5299976723
C        1.2995216499   -1.1329829327    0.6001637133
C        0.6294655678   -2.3647030191   -0.0303934058
H        6.5608421197    2.3282851215    0.2406009811
H        4.3787229812    3.3789562517   -0.3138261225
H        6.7317731064   -0.1434572433    0.4236623185
H        2.3768830522    1.9588112406   -0.6831847590
H        4.7259625846   -1.5569680526    0.0521375465
H        2.2812675715   -1.1424506533   -2.6792757968
H        0.4576731461   -2.9448585232   -2.1458226762
H       -0.3581707144   -1.3983111303   -1.7202242942
H        0.5714688649   -0.3353676669    0.7786850087
H        1.8414241570   -1.3787557414    1.5188100543
H       -0.3221496584   -2.6333900415    0.4390622426
H        1.3201576663   -3.2085710055    0.0725214222
23   

C        5.7107404473    1.7192988772   -0.0979797596
C        4.4446404155    2.3105457563   -0.1131866567
C        5.8304775620    0.3333108741   -0.2313207873
C        3.3015368006    1.5124576115   -0.2394701665
C        4.6837727728   -0.4591547261   -0.3620333458
C        3.4037715480    0.1132658971   -0.3173723764
C        2.0002105908   -1.5713785640   -1.5868042268
C        2.1991330858   -0.7226865353   -0.5393253872
C        0.7602732523   -2.3858735052   -1.3914392935
C        1.1828758464   -0.9847798282    0.5616839568
C        0.6924769388   -2.3798775881    0.1431285054
H        6.5972590128    2.3345697465    0.0064261005
H        4.3471365221    3.3870423007   -0.0309460361
H        6.8111280952   -0.1286239528   -0.2354292180
H        2.3223061475    1.9757082619   -0.2682932935
H        4.7829033968   -1.5321323261   -0.4772882507
H        2.6769671038   -1.6694115751   -2.4279130302
H        0.8375256960   -3.3969498809   -1.8027058473
H       -0.0987748865   -1.8595056857   -1.8216562413
H        0.3745357948   -0.2498590798    0.4955540890
H        1.6228617275   -0.9839251143    1.5639270053
H       -0.2960864643   -2.6317132936    0.5400784224
H        1.4164674271   -3.1148442252    0.5102861002
23   

C        5.6948641469    1.7307183627   -0.0781524963
C        4.4235808442    2.2889258938    0.0749229877
C        5.8229519840    0.3724148605   -0.3782882574
C        3.2858875338    1.4831937795   -0.0508619532
C        4.6812298433   -0.4274832487   -0.5071976105
C        3.3980327187    0.1026655345   -0.2941189738
C        2.0557937580   -1.6705972495   -1.5013059325
C        2.1942385425   -0.7234049831   -0.5290747895
C        0.7854339960   -2.4423784992   -1.3298716569
C        1.0815261581   -0.8594184213    0.4997002853
C        0.5955936042   -2.2825213384    0.1851116102
H        6.5778852311    2.3513188344    0.0243434919
H        4.3172455199    3.3468916072    0.2859006981
H        6.8066020591   -0.0624693297   -0.5139274550
H        2.3022732842    1.9269411902    0.0481244449
H        4.7929063915   -1.4771885770   -0.7512998172
H        2.7909831965   -1.8653206163   -2.2735729670
H        0.8722596778   -3.4905957215   -1.6318065349
H       -0.0238638551   -1.9487871815   -1.8788947311
H        0.2980792384   -0.1243616820    0.2902709499
H        1.4342943406   -0.7618596083    1.5312738354
H       -0.4269361285   -2.4790493864    0.5227981482
H        1.2717371463   -2.9866024658    0.6814627106
23   

C        5.6892179284    1.7347419782   -0.0342401525
C        4.4197769278    2.2454141755    0.2448373956
C        5.8231373614    0.4158887681   -0.4737374620
C        3.2903226880    1.4312886120    0.1007393514
C        4.6901247407   -0.3933997900   -0.6197984547
C        3.4092259711    0.0860422064   -0.2939578817
C        2.0921869082   -1.7495437831   -1.4402950439
C        2.2093248496   -0.7377691223   -0.5305899238
C        0.7860510751   -2.4651071446   -1.2935420673
C        1.0170345369   -0.7455788117    0.4153739512
C        0.5020508226   -2.1743611197    0.1864852318
H        6.5659102189    2.3620892883    0.0807705563
H        4.3080208746    3.2740239494    0.5682335311
H        6.8051356310    0.0185001392   -0.7036722999
H        2.3089433720    1.8445755599    0.3008454565
H        4.8135885474   -1.4116536181   -0.9676123925
H        2.8583444063   -2.0261311052   -2.1549400307
H        0.8551107876   -3.5371401868   -1.5022551687
H        0.0327842937   -1.9952200548   -1.9351355435
H        0.2801318398   -0.0077276236    0.0827236524
H        1.2939279759   -0.5696677458    1.4596608794
H       -0.5470498464   -2.3108999059    0.4674444713
H        1.1181378070   -2.8543311542    0.7844822154
23   

C        5.6812817763    1.7334409627    0.0081906664
C        4.4189731496    2.1834281878    0.4000808234
C        5.8180392995    0.4649964769   -0.5593202615
C        3.2988524127    1.3603006975    0.2353977367
C        4.6953236054   -0.3547034165   -0.7252397853
C        3.4209505649    0.0658961469   -0.3031922162
C        2.1184539816   -1.8273285365   -1.3840701477
C        2.2279696074   -0.7665864348   -0.5296377703
C        0.7799265232   -2.4866071062   -1.2659048635
C        0.9755226386   -0.6562886704    0.3280681760
C        0.4179119327   -2.0781981904    0.1683696475
H        6.5502919720    2.3685691483    0.1379015769
H        4.3052227218    3.1727274221    0.8284196990
H        6.7948287747    0.1143354243   -0.8724378178
H        2.3259300020    1.7345925774    0.5298512747
H        4.8274598486   -1.3333537909   -1.1688128670
H        2.9030630805   -2.1743060325   -2.0454398689
H        0.8215620766   -3.5729897101   -1.3914072028
H        0.0840589491   -2.0420598681   -1.9854877095
H        0.2943301185    0.0809703358   -0.1086194077
H        1.1870540755   -0.4153211310    1.3746550606
H       -0.6510580441   -2.1562999554    0.3905825012
H        0.9681884904   -2.7340395090    0.8515600474
23   

C        5.6831244036    1.7243305361    0.0497308157
C        4.4366188206    2.1107922503    0.5455468399
C        5.8101940087    0.5143882557   -0.6350100181
C        3.3210436618    1.2850893368    0.3627961628
C        4.6933140788   -0.3094028273   -0.8184376825
C        3.4325919138    0.0533148632   -0.3090337852
C        2.1444223937   -1.8938254190   -1.3215177538
C        2.2461631201   -0.7920407375   -0.5187855407
C        0.7777592432   -2.4998007595   -1.2465260005
C        0.9427880510   -0.5740788432    0.2370283480
C        0.3382848254   -1.9816332738    0.1290792989
H        6.5476944286    2.3627097961    0.1925475927
H        4.3314447799    3.0534245279    1.0704659084
H        6.7753351967    0.2119883339   -1.0251188616
H        2.3659259817    1.6199323105    0.7472794977
H        4.8223443201   -1.2420173878   -1.3519702727
H        2.9465167031   -2.3031605488   -1.9230499062
H        0.7878136143   -3.5931547507   -1.2947235118
H        0.1459266207   -2.0852313229   -2.0392066110
H        0.3261995439    0.1584224824   -0.2936870574
H        1.0864652832   -0.2788595498    1.2810807889
H       -0.7453623615   -2.0056888395    0.2816983859
H        0.8140175219   -2.6099508329    0.8898312886
23   

C        5.6956050462    1.7062425731    0.0875344351
C        4.4760837260    2.0282126333    0.6854695977
C        5.7953902303    0.5630541276   -0.7070133871
C        3.3582652788    1.2080694924    0.4905651557
C        4.6774260448   -0.2564757861   -0.9016956465
C        3.4395211056    0.0501590050   -0.3058373391
C        2.1712079293   -1.9453175978   -1.2532533344
C        2.2580617444   -0.8081433185   -0.4991277687
C        0.7841017349   -2.5076139972   -1.2390319084
C        0.9101780687   -0.4979625792    0.1382523226
C        0.2620750348   -1.8884081049    0.0635353753
H        6.5608778638    2.3417073894    0.2388790551
H        4.3936939832    2.9164997435    1.3013802656
H        6.7402485164    0.3091768952   -1.1738311577
H        2.4311779080    1.4989835912    0.9662822220
H        4.7870481001   -1.1360832801   -1.5221365818
H        2.9942501118   -2.4067220274   -1.7844842077
H        0.7630866072   -3.6016931566   -1.2152122099
H        0.2242743695   -2.1304969160   -2.1012875147
H        0.3656798535    0.2237680786   -0.4790474014
H        0.9768291421   -0.1553608767    1.1750141865
H       -0.8301171258   -1.8673722543    0.1329915173
H        0.6541044186   -2.4839233317    0.8952089519
23   

C        5.7339909822    1.6836895292    0.1262841583
C        4.5554559665    1.9369614370    0.8298686264
C        5.7848819062    0.6201859919   -0.7759791457
C        3.4279244986    1.1318844830    0.6278450680
C        4.6575838270   -0.1850293442   -0.9760812447
C        3.4543747442    0.0641956737   -0.2890751920
C        2.2091350037   -1.9682634131   -1.1800960646
C        2.2742189628   -0.7995502354   -0.4736592417
C        0.8119704136   -2.5026712005   -1.2321710513
C        0.8901452267   -0.4153842120    0.0318861634
C        0.2094207694   -1.7915117206   -0.0139828915
H        6.6062114164    2.3085636829    0.2817824033
H        4.5131837798    2.7585990846    1.5357830671
H        6.6986454118    0.4174921810   -1.3228588073
H        2.5382840223    1.3617077502    1.1980387153
H        4.7275771290   -1.0012844217   -1.6830762121
H        3.0557579201   -2.4702427465   -1.6318610959
H        0.7644879606   -3.5923382681   -1.1395803351
H        0.3253135101   -2.1731876107   -2.1559339496
H        0.4196941381    0.2807995016   -0.6698514745
H        0.8766474295   -0.0134832364    1.0484556161
H       -0.8837992164   -1.7399394391   -0.0322796982
H        0.5179540126   -2.3444617360    0.8799569309
23   

C        5.7508924555    1.6456920578    0.1515212491
C        4.6194050999    1.8257958919    0.9489626082
C        5.7452267591    0.6683949432   -0.8451155975
C        3.4807989648    1.0381480536    0.7413303565
C        4.6063334479   -0.1196069737   -1.0486396223
C        3.4431219064    0.0702795317   -0.2797042664
C        2.2322744941   -2.0021033628   -1.1050421207
C        2.2651530760   -0.7983991961   -0.4587912149
C        0.8358124295   -2.5301842934   -1.2165486190
C        0.8517030630   -0.3605040485   -0.1013692837
C        0.1567504793   -1.7299237612   -0.0967899000
H        6.6318324444    2.2575169079    0.3096897131
H        4.6235599004    2.5740399575    1.7333551607
H        6.6237774995    0.5192921290   -1.4623960643
H        2.6270885280    1.1905664256    1.3884075845
H        4.6278649510   -0.8703974735   -1.8283327562
H        3.1047648817   -2.5320083583   -1.4678869053
H        0.7702309598   -3.6100446758   -1.0494798381
H        0.4182228136   -2.2655777654   -2.1933218922
H        0.4522003357    0.2810106525   -0.8934175911
H        0.7657289091    0.1289502993    0.8723511628
H       -0.9314841394   -1.6705605590   -0.1983217577
H        0.3929538552   -2.2193509368    0.8544490134
23   

C        5.7692963415    1.6131535687    0.1649098154
C        4.6900352621    1.7107750402    1.0456232971
C        5.7048227596    0.7271276212   -0.9125450544
C        3.5426793145    0.9364979462    0.8367961046
C        4.5568488248   -0.0480006809   -1.1153102978
C        3.4396109017    0.0748100277   -0.2706976421
C        2.2607623468   -2.0404185515   -1.0173374555
C        2.2654581360   -0.8032193318   -0.4396165551
C        0.8680126274   -2.5644865954   -1.1856222870
C        0.8376129369   -0.3191486278   -0.2340058953
C        0.1222282891   -1.6767577384   -0.1782800736
H        6.6569498076    2.2153352102    0.3224967857
H        4.7425037801    2.3823601077    1.8949462849
H        6.5447983838    0.6381978268   -1.5919836339
H        2.7247202386    1.0079650360    1.5429725390
H        4.5272016644   -0.7340205874   -1.9530109336
H        3.1528391409   -2.5905082367   -1.2932640323
H        0.7773448535   -3.6280578646   -0.9427563262
H        0.5220722923   -2.3716965300   -2.2061335978
H        0.5143760140    0.2616764190   -1.1038858908
H        0.6941916071    0.2529096411    0.6871699706
H       -0.9548630699   -1.6140683893   -0.3626669567
H        0.2821758856   -2.0960344304    0.8211772464
23   

C        5.7858630866    1.5859062776    0.1656424895
C        4.7714116448    1.5874373161    1.1259565198
C        5.6505634736    0.8027124617   -0.9832207516
C        3.6157112069    0.8238209809    0.9242837420
C        4.4944258152    0.0374667485   -1.1774468081
C        3.4370423665    0.0768424907   -0.2538317657
C        2.2829730741   -2.0781674218   -0.9125063031
C        2.2632693699   -0.8078743272   -0.4153209700
C        0.8981297620   -2.5997169251   -1.1442079836
C        0.8345858116   -0.2877179694   -0.3678701500
C        0.0919576742   -1.6281658023   -0.2680024763
H        6.6794291637    2.1809393652    0.3168144479
H        4.8809897844    2.1753893600    2.0300684366
H        6.4419694045    0.7852240785   -1.7238006978
H        2.8436963223    0.8126710935    1.6844680864
H        4.4056240785   -0.5753445627   -2.0665951423
H        3.1880667681   -2.6463274378   -1.0942627590
H        0.7728219285   -3.6398391445   -0.8265683102
H        0.6325246478   -2.4848177960   -2.1998382971
H        0.5953259325    0.2290163400   -1.3029000867
H        0.6360534859    0.3571541564    0.4935808409
H       -0.9661888927   -1.5664573739   -0.5410319177
H        0.1656592624   -1.9719177610    0.7696717831
23   

C        5.7934818440    1.5757939818    0.1480132013
C        4.8632339964    1.4510122469    1.1832991545
C        5.5740781608    0.9165428174   -1.0645497992
C        3.7061961241    0.6858448357    0.9954004053
C        4.4172544667    0.1488694695   -1.2448823975
C        3.4445102499    0.0644123029   -0.2375125344
C        2.2954809237   -2.1315562079   -0.7686495157
C        2.2654146535   -0.8187333144   -0.4041561714
C        0.9199182226   -2.6503197723   -1.0562197569
C        0.8530743617   -0.2675306500   -0.5254935841
C        0.0716401498   -1.5785087895   -0.3518182876
H        6.6872447313    2.1730778164    0.2887766790
H        5.0388138524    1.9429745306    2.1331736158
H        6.3003680115    0.9974448889   -1.8651961631
H        2.9959793053    0.5763313708    1.8065357016
H        4.2586173423   -0.3707356595   -2.1825559703
H        3.2005141717   -2.7259245233   -0.8222480075
H        0.7436413823   -3.6492784220   -0.6445446197
H        0.7407250729   -2.6417837369   -2.1359672391
H        0.7019732146    0.1554958040   -1.5238437876
H        0.6081319475    0.4653553518    0.2495004976
H       -0.9598288336   -1.5273379548   -0.7144155070
H        0.0541150587   -1.8145425531    0.7179408030
23   

C        5.7014639187    1.7229581791    0.0983843583
C        4.9306872505    1.3543088974    1.2050577061
C        5.3587623004    1.2563182793   -1.1743347375
C        3.8195270993    0.5196815908    1.0366584415
C        4.2467855119    0.4214843495   -1.3380798195
C        3.4681396699    0.0426152271   -0.2364538470
C        2.2517386062   -2.1901795527   -0.3404541541
C        2.2821843361   -0.8317888254   -0.4169077549
C        0.8677721567   -2.7066995824   -0.5855771431
C        0.9008259448   -0.2623437947   -0.7007623089
C        0.0491985331   -1.4529619293   -0.2306990906
H        6.5620436220    2.3697523314    0.2266356315
H        5.1922214371    1.7149391047    2.1933198038
H        5.9531012615    1.5412402816   -2.0349716252
H        3.2212313806    0.2360417156    1.8945891688
H        3.9816696792    0.0624483557   -2.3256232316
H        3.1106697449   -2.8068084387   -0.1012690745
H        0.6095431621   -3.5628628785    0.0454621821
H        0.7513799624   -2.9605630265   -1.6444403738
H        0.7840466548   -0.0937789891   -1.7759545333
H        0.6855093421    0.6512418570   -0.1377469851
H       -0.9631170627   -1.4578536809   -0.6470610745
H       -0.0223116600   -1.4009618874    0.8610285628
23   

C        5.5862304328    1.8566109698    0.1240296133
C        4.9831598110    1.2478694793    1.2278850247
C        5.1151912079    1.5811364147   -1.1625186925
C        3.9263489223    0.3491941337    1.0401660595
C        4.0553925389    0.6842096728   -1.3426178744
C        3.4830149147    0.0170012399   -0.2500041438
C        2.1548728211   -2.1221816878    0.0245554094
C        2.2960650298   -0.8501953583   -0.4424731742
C        0.7600752973   -2.6206833457   -0.1877889197
C        0.9529046346   -0.2895329777   -0.8851059800
C        0.0092909970   -1.2804567635   -0.1852580277
H        6.4082143911    2.5491205454    0.2660067354
H        5.3294191148    1.4752101076    2.2296470460
H        5.5673516311    2.0644146548   -2.0210586350
H        3.4469221813   -0.1039006886    1.8999441604
H        3.6822294958    0.4867935201   -2.3406834812
H        2.9404381431   -2.6782402157    0.5232721088
H        0.4162187958   -3.2942519581    0.6030568474
H        0.6867016368   -3.1067399819   -1.1668216017
H        0.8647260194   -0.3674554422   -1.9732359715
H        0.7868556668    0.7418142964   -0.5581537151
H       -0.9842997963   -1.3327003572   -0.6416513271
H       -0.0988851710   -0.9626218851    0.8570609907
23   

C        5.5794381404    1.8556323778    0.1588347876
C        5.0798541746    1.1083800793    1.2283850950
C        5.0077484343    1.7184800337   -1.1086072327
C        4.0265358129    0.2095543460    1.0225660558
C        3.9520932524    0.8206458091   -1.3070415734
C        3.4840031792    0.0134044768   -0.2588623392
C        2.1048808564   -2.0709228400    0.1248319623
C        2.3008388837   -0.8513616009   -0.4529803963
C        0.7193615441   -2.5744723887   -0.1314116973
C        0.9990084558   -0.3301332469   -1.0435278310
C       -0.0066918867   -1.2337237018   -0.3134341499
H        6.3986096251    2.5485380398    0.3144707489
H        5.5032454910    1.2288677969    2.2190066300
H        5.3787068437    2.3097884858   -1.9379693882
H        3.6284697852   -0.3468350532    1.8627878951
H        3.5030295908    0.7322172802   -2.2892540804
H        2.8437567415   -2.5857727628    0.7280442412
H        0.3121711399   -3.1608976561    0.6979047336
H        0.7031738658   -3.1562428955   -1.0594738680
H        0.9839037243   -0.5205569748   -2.1212366735
H        0.8259986294    0.7309208202   -0.8375515090
H       -0.9684458260   -1.3214459334   -0.8287540434
H       -0.1782087471   -0.8105610493    0.6819507478
23   

C        5.5929223438    1.8318268804    0.1759503974
C        5.1784212530    0.9865893139    1.2078202873
C        4.9284032767    1.8023575337   -1.0523058553
C        4.1142715815    0.1004074410    1.0029612280
C        3.8627821280    0.9166509054   -1.2514884970
C        3.4691876097    0.0196370864   -0.2447253227
C        2.0555806297   -2.0314986100    0.2045146573
C        2.2924859941   -0.8486042713   -0.4338548388
C        0.6908460805   -2.5563767419   -0.1141242712
C        1.0423499095   -0.3878491906   -1.1694172031
C       -0.0171564381   -1.2361585309   -0.4498798187
H        6.4198861165    2.5154949964    0.3312407348
H        5.6770646342    1.0205819484    2.1697528647
H        5.2361568847    2.4671474402   -1.8513366356
H        3.7890050032   -0.5313580344    1.8204794955
H        3.3490765608    0.9116607978   -2.2054260437
H        2.7493469240   -2.5110584709    0.8850562009
H        0.2223035739   -3.0790971709    0.7254144612
H        0.7408786621   -3.2070769190   -0.9938465038
H        1.1139974328   -0.6669132536   -2.2253970980
H        0.8500969392    0.6847646065   -1.0657402076
H       -0.9382466583   -1.3661424709   -1.0268459648
H       -0.2611673790   -0.7390322235    0.4950322109
23   

C        5.7613182306    1.6599501680    0.0182142234
C        5.0343957569    1.7292215448   -1.1718159573
C        5.3118409709    0.8419688028    1.0566146223
C        3.8531983778    0.9920259600   -1.3164087780
C        4.1314021743    0.1043618122    0.9082297926
C        3.3636531262    0.1897129285   -0.2672796349
C        1.1614035823   -0.4471471929   -1.3554283369
C        2.1527460967   -0.6308468774   -0.4338707671
C        0.1420344951   -1.5407085511   -1.2833314590
C        1.9406126267   -1.9410672215    0.3108802689
C        1.0034274415   -2.6554956090   -0.6741613062
H        6.6743535667    2.2332044148    0.1328260169
H        5.3871134516    2.3513142220   -1.9865006254
H        5.8775907770    0.7774451650    1.9790534343
H        3.3165593248    1.0467282044   -2.2551535219
H        3.8029633919   -0.5255510410    1.7259349895
H        1.1245418650    0.3658651345   -2.0704867004
H       -0.2648261981   -1.8163845311   -2.2611786070
H       -0.6626335545   -1.2515004315   -0.5988609037
H        1.4331233002   -1.7464083354    1.2610516736
H        2.8656509354   -2.5031855136    0.4735760061
H        0.4200553614   -3.4609333008   -0.2168626413
H        1.6180818520   -3.0782784782   -1.4761347433
23   

C        5.7361181048    1.7036122482    0.0330908323
C        4.9557596921    1.8572492178   -1.1134217276
C        5.3547699258    0.7821155494    1.0090495521
C        3.7936892227    1.0947467247   -1.2794182368
C        4.1928560650    0.0198873898    0.8404182324
C        3.3793782981    0.1687438242   -0.3003233518
C        1.2032865662   -0.5095066464   -1.4298557460
C        2.1709597129   -0.6530664534   -0.4754842674
C        0.1439153847   -1.5583372184   -1.2946665817
C        1.8821376580   -1.8757538466    0.3841812108
C        0.9427344518   -2.6421149531   -0.5586391642
H        6.6351543614    2.2952389524    0.1638870587
H        5.2508411180    2.5669490390   -1.8778650953
H        5.9585474206    0.6570778273    1.9006662871
H        3.2145656996    1.2289220964   -2.1837701545
H        3.9234576173   -0.6816035437    1.6198612009
H        1.2005828890    0.2467601570   -2.2050544479
H       -0.2415565614   -1.9082446784   -2.2573826632
H       -0.6710479557   -1.1814599866   -0.6675963668
H        1.3585803890   -1.5708494475    1.2959384429
H        2.7738274710   -2.4630009027    0.6246178009
H        0.3153081587   -3.3792247130   -0.0475905207
H        1.5613734454   -3.1608649082   -1.2989335575
23   

C        5.6980208803    1.7457803109    0.0601260100
C        4.8557566356    1.9828846196   -1.0258123851
C        5.3934913531    0.7220434837    0.9569595595
C        3.7135819957    1.1960431672   -1.2138379133
C        4.2506224508   -0.0636732723    0.7668759598
C        3.3840991549    0.1506362763   -0.3256557798
C        1.2385763170   -0.5673729850   -1.4953176630
C        2.1803592564   -0.6780998488   -0.5108310367
C        0.1369172478   -1.5642186481   -1.3133032316
C        1.8152727150   -1.8086268234    0.4413892663
C        0.8660086332   -2.6109385286   -0.4610782357
H        6.5828828731    2.3546343471    0.2074820676
H        5.0856724242    2.7784620016   -1.7253261831
H        6.0423432111    0.5354465976    1.8051103590
H        3.0811494478    1.4077306333   -2.0659271084
H        4.0489081993   -0.8402627230    1.4927436697
H        1.2780127458    0.1328767159   -2.3203619647
H       -0.2278540458   -1.9801895799   -2.2577236816
H       -0.6844101679   -1.1076483479   -0.7511080725
H        1.2850860177   -1.4046931789    1.3098074268
H        2.6677515790   -2.4197089719    0.7522917982
H        0.1924838631   -3.2740786845    0.0909761766
H        1.4804917931   -3.2182406718   -1.1345007142
