29   

C        3.0827241880   -2.8230459805    0.6829477980
C        2.3939056334   -1.6758977700    0.2808720702
C        2.9286136462   -3.3034113550    1.9859820690
C        1.5485976078   -1.0142750504    1.1787211771
C        2.0933813605   -2.6329466403    2.8866737251
C       -0.1546992942   -4.4152269352    5.6952685616
C       -0.0343886743   -5.6825874567    5.1193918979
C       -1.3773450722   -3.6741560805    3.7522589650
C        1.3909331718   -1.4815425091    2.4939293585
C       -0.8159339108   -3.3935075460    5.0062952932
C       -0.5708751888   -5.9552456829    3.8544594898
C       -1.2553219767   -4.9384059551    3.1642764625
C        0.5091501165   -0.7873169015    3.4275816395
C        0.3878060838   -0.8933446838    4.8032310948
O       -2.2156547744   -1.0964425814    5.3491001561
O       -0.6331199430   -1.7127984881    7.1423887101
S       -0.9261336337   -1.7117408648    5.7003690675
Cl      -0.3789291819   -7.5501036546    3.1597205708
Cl      -1.9473247857   -5.2217791541    1.5815084394
H        3.7344039168   -3.3384889929   -0.0138760939
H        2.5153296716   -1.2972025431   -0.7278290950
H        3.4561771552   -4.1971723307    2.2993349086
H        1.0233541054   -0.1245181468    0.8492133658
H        1.9827754755   -3.0205974081    3.8929973923
H        0.2699715167   -4.2225117909    6.6777149046
H        0.4834297590   -6.4694787948    5.6551661034
H       -1.9099873172   -2.8957978427    3.2129270788
H       -0.1886958900   -0.0916078495    2.9720269782
H        1.2323962027   -0.6332334830    5.4210010135
29   

C        2.8596992518   -3.1015760326    0.8814345416
C        2.1751682419   -1.9853345576    0.3948051933
C        2.7982296921   -3.4133276063    2.2417272086
C        1.4246962617   -1.1875786842    1.2658425018
C        2.0538240594   -2.6100655030    3.1125707284
C       -0.0698764265   -4.3963767730    5.5533214407
C        0.1153496182   -5.6118318686    4.8891156752
C       -1.2402978161   -3.5477844186    3.6222322564
C        1.3501342919   -1.4909951026    2.6357523453
C       -0.7344812787   -3.3447162044    4.9145331071
C       -0.3581367788   -5.8019127685    3.5843971623
C       -1.0499879772   -4.7574630092    2.9451652028
C        0.5415697750   -0.6668667387    3.5329816962
C        0.3628656861   -0.7591282830    4.8918645275
O       -2.2265992830   -1.1346093505    5.4091470597
O       -0.6276489952   -1.7979908618    7.1587854005
S       -0.9112073709   -1.7173103522    5.7170195953
Cl      -0.0775410364   -7.3288575585    2.7767167054
Cl      -1.6614691505   -4.9361457183    1.3147309746
H        3.4369250266   -3.7231387706    0.2058861195
H        2.2234418889   -1.7384101943   -0.6598832575
H        3.3269485465   -4.2794181348    2.6232592160
H        0.8964590370   -0.3286722109    0.8667980585
H        2.0202396682   -2.8667037373    4.1648819727
H        0.3107821836   -4.2652105157    6.5635123257
H        0.6379207352   -6.4211961100    5.3851321656
H       -1.7745644090   -2.7463884689    3.1198056985
H        0.0611243544    0.1910377514    3.0731508566
H        0.9287898250   -0.1175472210    5.5490658421
29   

C        2.7154438853   -3.3359954819    1.1731041377
C        1.9411574509   -2.3387649037    0.5752635035
C        2.8085512042   -3.3994328753    2.5651628340
C        1.2544007005   -1.4126787548    1.3686216423
C        2.1206032148   -2.4735006247    3.3567504590
C        0.0416260980   -4.3521017561    5.2815758530
C        0.2467100872   -5.4961727865    4.5059493380
C       -1.2235951088   -3.3814229078    3.4719077796
C        1.3233561206   -1.4752888117    2.7703028578
C       -0.6771265091   -3.2720161562    4.7589832162
C       -0.2600638594   -5.5859933149    3.2031056290
C       -1.0111883873   -4.5170316395    2.6823696775
C        0.5569883417   -0.5315974344    3.5915111066
C        0.3097579057   -0.6052979790    4.9287815607
O       -2.2233626839   -1.1805608145    5.5271300627
O       -0.5127222891   -1.9185373402    7.1195523514
S       -0.8679583327   -1.7244330323    5.7045950168
Cl       0.0550520624   -7.0193749324    2.2500009800
Cl      -1.6649661931   -4.5709865042    1.0595271944
H        3.2430723913   -4.0572372901    0.5588904072
H        1.8680481394   -2.2862307959   -0.5052420153
H        3.4120593192   -4.1686510071    3.0332676746
H        0.6507081914   -0.6525697290    0.8852543226
H        2.2061811553   -2.5369438640    4.4355035683
H        0.4525142586   -4.2959935866    6.2867212654
H        0.8142053224   -6.3254772900    4.9109991380
H       -1.8018015941   -2.5593340630    3.0603328553
H        0.2168232834    0.3706472054    3.0930957437
H        0.5780495741    0.2251073300    5.5635392959
29   

C        2.6432830047   -3.4022400210    1.2840161741
C        1.8727596170   -2.4235269238    0.6516894234
C        2.7537269948   -3.4044270703    2.6762942795
C        1.2064487135   -1.4552064318    1.4112972376
C        2.0840438045   -2.4376939767    3.4342398087
C        0.0389099018   -4.3775852135    5.1719684857
C        0.2447669900   -5.5051071019    4.3732921149
C       -1.2285727567   -3.3700037837    3.3842354382
C        1.2882190430   -1.4597054698    2.8135285382
C       -0.6810009163   -3.2867342475    4.6726764596
C       -0.2624849175   -5.5682217366    3.0693720830
C       -1.0148510128   -4.4891721354    2.5712268136
C        0.5491190935   -0.4630326373    3.6015159598
C        0.1777163589   -0.5370859577    4.9009296734
O       -2.2790948957   -1.2971019361    5.5820483151
O       -0.4637554443   -1.9932518048    7.0565044435
S       -0.8888016516   -1.7705383933    5.6650201126
Cl       0.0527215586   -6.9819861944    2.0874720887
Cl      -1.6703675044   -4.5115248403    0.9484392408
H        3.1554428189   -4.1558482244    0.6961362669
H        1.7871528435   -2.4178519952   -0.4291634722
H        3.3565751621   -4.1574966836    3.1707129930
H        0.6066517182   -0.7087331133    0.9024836930
H        2.1840587928   -2.4507272390    4.5137579606
H        0.4483164572   -4.3435676842    6.1787392401
H        0.8123575005   -6.3422301084    4.7617861598
H       -1.8098997368   -2.5412794810    2.9912715752
H        0.3335926963    0.4735142246    3.0969234501
H        0.2611990397    0.3488732718    5.5116486396
29   

C        3.1715171821   -3.5259293087    1.9048682892
C        2.1910937303   -2.9878840909    1.0669680938
C        3.2702797738   -3.0870980458    3.2275443374
C        1.3109440849   -2.0132170225    1.5510773265
C        2.3831630692   -2.1206043407    3.7133650939
C        0.1563239534   -4.2815590038    4.5082876334
C        0.0304211251   -5.2856086271    3.5475621681
C       -1.7921480805   -3.1890867798    3.6010500118
C        1.3863902772   -1.5765131221    2.8832335265
C       -0.7415330589   -3.2083571731    4.5284793947
C       -0.9951531573   -5.2469955707    2.5965662045
C       -1.9236324155   -4.1897426280    2.6290808839
C        0.4412454624   -0.5694488990    3.3935683275
C        0.0186328725   -0.4506164304    4.6670491825
O       -1.7832011739   -1.4742111549    6.3469514231
O        0.5444968729   -2.1506469806    6.6808061993
S       -0.5093428163   -1.8299401467    5.7032337407
Cl      -1.0965652868   -6.5075743287    1.3868660389
Cl      -3.2270744821   -4.0935947531    1.4650871657
H        3.8560333021   -4.2781099769    1.5286864988
H        2.1109637606   -3.3273178224    0.0403553064
H        4.0359179013   -3.4924873551    3.8796343889
H        0.5522842948   -1.6113378727    0.8887823698
H        2.4788843816   -1.7874824307    4.7421397834
H        0.9708905027   -4.3222705117    5.2270947957
H        0.7444844608   -6.1002089708    3.5281468365
H       -2.5104768834   -2.3748097325    3.6175847697
H        0.0797367590    0.1642369800    2.6802607093
H       -0.3014098443    0.5103652344    5.0397742272
29   

C        3.1590952142   -3.5438590335    1.9680684531
C        2.1845306234   -3.0085919647    1.1215659014
C        3.2724764676   -3.0742521801    3.2790339610
C        1.3249235098   -2.0062862839    1.5856687127
C        2.4049604968   -2.0804912764    3.7450458578
C        0.1714000389   -4.2857987788    4.4348371993
C        0.0251409109   -5.2892640490    3.4765053816
C       -1.7944935574   -3.1914995819    3.5689503860
C        1.4135482124   -1.5401628956    2.9068730432
C       -0.7260884985   -3.2128795961    4.4756253456
C       -1.0204021227   -5.2500612354    2.5476465837
C       -1.9468626553   -4.1917801533    2.5995067149
C        0.4914195913   -0.4965766593    3.3940130478
C       -0.0667401049   -0.4280106557    4.6129763685
O       -1.7219399192   -1.5456245004    6.3764555972
O        0.6427251134   -2.1364090375    6.5677687638
S       -0.4748764917   -1.8412608197    5.6546260127
Cl      -1.1491896440   -6.5114966334    1.3414254989
Cl      -3.2748126297   -4.0949739176    1.4635876770
H        3.8282514283   -4.3171124516    1.6073185701
H        2.0931875136   -3.3711340062    0.1038307574
H        4.0344901309   -3.4762270698    3.9374814966
H        0.5708993715   -1.6055033905    0.9174205094
H        2.5138549301   -1.7211470130    4.7635356669
H        1.0004444673   -4.3275990490    5.1368043164
H        0.7381412266   -6.1042937543    3.4423749445
H       -2.5120335886   -2.3770929302    3.6007464550
H        0.2223702364    0.2798554022    2.6850914520
H       -0.5030884512    0.4984774010    4.9537389016
29   

C        3.1318026225   -3.5618446513    2.0053089797
C        2.1596961339   -3.0118882661    1.1653623078
C        3.2700519968   -3.0846995875    3.3113201311
C        1.3278430801   -1.9872628212    1.6311044908
C        2.4293052169   -2.0688047807    3.7791040987
C        0.1850085495   -4.2947089350    4.4208867751
C        0.0420527329   -5.3042317647    3.4683586734
C       -1.7893538226   -3.2166990252    3.5543172043
C        1.4412729649   -1.5138681593    2.9476182170
C       -0.7192571827   -3.2275662999    4.4591206065
C       -1.0064265677   -5.2764275466    2.5423789496
C       -1.9385992237   -4.2230607585    2.5907342358
C        0.5488647022   -0.4412576017    3.4356859218
C       -0.1477296657   -0.4286973687    4.5801756972
O       -1.7131709379   -1.5958979907    6.3889549481
O        0.6730236629   -2.1123768588    6.5163901517
S       -0.4769931785   -1.8506471920    5.6335721607
Cl      -1.1318546825   -6.5457768658    1.3441214284
Cl      -3.2704105806   -4.1402616396    1.4581807345
H        3.7798046672   -4.3522564664    1.6431607790
H        2.0487536727   -3.3800132553    0.1515850540
H        4.0305348107   -3.4979719674    3.9645001947
H        0.5754399879   -1.5739381806    0.9686688944
H        2.5566729364   -1.7027436129    4.7929974948
H        1.0159927064   -4.3277248979    5.1209703688
H        0.7596324202   -6.1153017405    3.4368226569
H       -2.5114196483   -2.4062581016    3.5832806456
H        0.3773710043    0.3850149140    2.7532778448
H       -0.6751516838    0.4640615219    4.8796958329
29   

C        2.0061778292   -3.0248402344    0.8733601421
C        1.0455145940   -2.0104597913    0.8939649574
C        2.7811880724   -3.2696079657    2.0100845641
C        0.8511838927   -1.2526810618    2.0541320643
C        2.5937360174   -2.5025558816    3.1656171317
C       -0.2444800452   -3.9849375988    5.4237603324
C        0.1764246373   -5.2810412167    5.1145532517
C       -0.9500298315   -3.6939109400    3.1372898618
C        1.6157291648   -1.4970033359    3.2072990660
C       -0.7940316072   -3.1703845586    4.4290978463
C        0.0493078741   -5.7913767405    3.8164338217
C       -0.5287364406   -4.9893158212    2.8165304284
C        1.4060280251   -0.7056417971    4.4417799888
C        0.2770703249   -0.6177839738    5.1553639018
O       -1.9241411201   -0.8292472639    3.6172329699
O       -2.1261593114   -1.3937561640    5.9876736129
S       -1.2765517802   -1.4461422823    4.7877277856
Cl       0.6118816352   -7.4109306701    3.4650728816
Cl      -0.7175733411   -5.5753393955    1.1776581148
H        2.1495269247   -3.6198230497   -0.0218441106
H        0.4472348038   -1.8107162258    0.0119447970
H        3.5256524201   -4.0576180250    1.9970450550
H        0.1037342716   -0.4654635894    2.0535395218
H        3.1982473008   -2.7072109481    4.0420050069
H       -0.1347137439   -3.6065233720    6.4363130273
H        0.6124969670   -5.9036115333    5.8866521175
H       -1.3898793654   -3.0795889265    2.3567100259
H        2.2959943617   -0.2717515655    4.8861099110
H        0.2540795441   -0.0282589055    6.0590611327
29   

C        2.0210317758   -3.0172587726    0.8424383403
C        1.0536525318   -2.0110337137    0.8996913011
C        2.8057814299   -3.2896160332    1.9660104276
C        0.8616978832   -1.2898564096    2.0831454116
C        2.6200501904   -2.5597069698    3.1457222118
C       -0.2648077655   -3.9637203884    5.4400650405
C        0.1629611583   -5.2615440464    5.1478765291
C       -0.9600440180   -3.7020841753    3.1467642270
C        1.6336162947   -1.5642902764    3.2254498053
C       -0.8118161822   -3.1626670528    4.4330561787
C        0.0453337310   -5.7869825077    3.8548650754
C       -0.5310268874   -4.9989535567    2.8429126918
C        1.4256990953   -0.8172853644    4.4828525855
C        0.2570139186   -0.5880982184    5.0975551352
O       -1.9643196485   -0.8411106305    3.5958277295
O       -2.1302824261   -1.3623083491    5.9777811214
S       -1.2969987932   -1.4340557103    4.7674585603
Cl       0.6178188884   -7.4075033047    3.5246214795
Cl      -0.7071911125   -5.6036383480    1.2094585279
H        2.1628496396   -3.5836339212   -0.0713707669
H        0.4487869793   -1.7883097687    0.0276942232
H        3.5566462505   -4.0705098921    1.9238597667
H        0.1110505974   -0.5062356261    2.1071720957
H        3.2327753353   -2.7871141361    4.0107010472
H       -0.1616397646   -3.5730823893    6.4486955373
H        0.5975981779   -5.8734973310    5.9292217893
H       -1.3981374455   -3.0986636132    2.3567052809
H        2.3219228698   -0.4927879896    5.0016937847
H        0.2178923622    0.0722390700    5.9503328735
29   

C        2.0608626782   -3.0034578796    0.8253360253
C        1.0750998928   -2.0167608845    0.9020865777
C        2.8481319315   -3.2858368339    1.9446269609
C        0.8676198495   -1.3250883433    2.1002777197
C        2.6463608651   -2.5859907726    3.1398871559
C       -0.2824590763   -3.9383232285    5.4570149511
C        0.1557285456   -5.2336651561    5.1690112054
C       -0.9820209829   -3.6910099462    3.1632933888
C        1.6419007246   -1.6102842881    3.2391436890
C       -0.8358899608   -3.1451467428    4.4472300903
C        0.0423446192   -5.7643341247    3.8776942608
C       -0.5416426200   -4.9849067510    2.8634954084
C        1.4140846867   -0.9000541771    4.5103590949
C        0.2256777130   -0.5425296280    5.0241797964
O       -2.0449876247   -0.8514565287    3.6169063501
O       -2.1163832949   -1.3316894534    6.0126720237
S       -1.3288064744   -1.4169174453    4.7729807657
Cl       0.6297878393   -7.3804509168    3.5522057564
Cl      -0.7122022649   -5.5958873513    1.2318097203
H        2.2150679343   -3.5467339497   -0.1004090390
H        0.4680646431   -1.7862779759    0.0336100822
H        3.6134877239   -4.0515271568    1.8869747837
H        0.1017682318   -0.5568101563    2.1383361750
H        3.2614314686   -2.8223957729    4.0007560638
H       -0.1818321307   -3.5430666370    6.4641553360
H        0.5958877642   -5.8393997141    5.9521047102
H       -1.4257212872   -3.0942906775    2.3712241212
H        2.2959679137   -0.6620496671    5.0962885193
H        0.1801190625    0.1979844396    5.8080039649
29   

C        2.1147560324   -3.0155253801    0.8197994969
C        1.1066436584   -2.0519047715    0.8981011206
C        2.8954174335   -3.2956892566    1.9442784088
C        0.8711317180   -1.3804051738    2.1024600454
C        2.6651067814   -2.6166497188    3.1464165132
C       -0.3030411808   -3.9316173512    5.4566673471
C        0.1425591477   -5.2197795825    5.1486733462
C       -1.0402009915   -3.6675574108    3.1764252619
C        1.6397857365   -1.6628277964    3.2464335943
C       -0.8777793865   -3.1329583900    4.4631327638
C        0.0156146050   -5.7377146302    3.8534329690
C       -0.5915081704   -4.9537361562    2.8564312615
C        1.3773105948   -0.9788394459    4.5233383938
C        0.1853130969   -0.5072739618    4.9364785143
O       -2.1740536011   -0.8641631274    3.7032138239
O       -2.0698892871   -1.3218605136    6.1038002363
S       -1.3724491886   -1.4097516955    4.8113919302
Cl       0.6156483885   -7.3436408212    3.5016445106
Cl      -0.7789782890   -5.5486243447    1.2206946609
H        2.2910303291   -3.5429292888   -0.1111657343
H        0.5038639267   -1.8243544942    0.0259105330
H        3.6778010990   -4.0438610270    1.8852189029
H        0.0855676698   -0.6322168884    2.1424287275
H        3.2753019492   -2.8523666963    4.0109069888
H       -0.1907434785   -3.5454242940    6.4661802725
H        0.6000632875   -5.8294129758    5.9186918961
H       -1.5013110655   -3.0669037259    2.3973423567
H        2.2312361895   -0.8106404639    5.1715322282
H        0.1446428891    0.3208044024    5.6274217833
29   

C        2.2288524149   -3.0929437718    0.8621617178
C        1.1747981877   -2.1773740475    0.9014796676
C        3.0009035337   -3.3115011471    2.0060847165
C        0.8862277523   -1.4916362197    2.0860944512
C        2.7159233444   -2.6193964777    3.1889467899
C       -0.2781664930   -3.9367661398    5.4171911032
C        0.1662375578   -5.2043607766    5.0331525818
C       -1.1722399672   -3.6038924773    3.2027249264
C        1.6462131362   -1.7119363057    3.2490636939
C       -0.9297379800   -3.1129703378    4.4938209877
C       -0.0377000245   -5.6767572349    3.7305482226
C       -0.7241749308   -4.8691941378    2.8061289938
C        1.3243839411   -1.0170007913    4.5043598840
C        0.1282838398   -0.4729685229    4.8271813230
O       -2.3833662817   -0.8715425290    3.9709052486
O       -1.9011515801   -1.3499302407    6.3228877028
S       -1.4112127850   -1.4088173065    4.9367836589
Cl       0.5673653310   -7.2556934220    3.2793939494
Cl      -1.0085676218   -5.4077164200    1.1649728792
H        2.4471755558   -3.6308007552   -0.0537833905
H        0.5777225750   -1.9991457251    0.0140874972
H        3.8192803609   -4.0219844675    1.9770176570
H        0.0646877965   -0.7824768345    2.0974912393
H        3.3205342850   -2.8077724820    4.0688234443
H       -0.1035719606   -3.5842500040    6.4303246662
H        0.6845667110   -5.8322098764    5.7480268486
H       -1.6941530703   -2.9834846624    2.4795279444
H        2.1421416488   -0.8662855189    5.2016437094
H        0.0926997617    0.4622035768    5.3646213409
29   

C        2.6849049546   -3.3385508487    1.2094361825
C        1.4214326175   -2.7483187858    1.1345378056
C        3.4923678898   -3.1075770769    2.3259364819
C        0.9645167005   -1.9357453048    2.1775612266
C        3.0317995983   -2.2970531016    3.3701494797
C       -0.1435069794   -3.9484102843    4.9891435442
C        0.1564052121   -5.1467421468    4.3397519480
C       -1.7462220332   -3.4316297762    3.2620605653
C        1.7560300269   -1.7111318615    3.3170730880
C       -1.0792624918   -3.0653579861    4.4395048094
C       -0.4776808661   -5.4943512629    3.1415205943
C       -1.4492311296   -4.6310511765    2.6014187453
C        1.2673555624   -0.8976570741    4.4350585254
C        0.0007845896   -0.4420834512    4.6481393599
O       -2.6472570812   -0.8565403798    4.7473630885
O       -1.3143634203   -1.5566381937    6.6822312052
S       -1.3825302856   -1.4441575034    5.2166551981
Cl      -0.0453780666   -6.9886657470    2.3398894838
Cl      -2.2752048848   -5.0192280972    1.1082735537
H        3.0378912341   -3.9707344920    0.4021598788
H        0.7925896851   -2.9205327196    0.2681453775
H        4.4759662145   -3.5600328130    2.3840213696
H       -0.0152594549   -1.4790729292    2.0969831709
H        3.6704276559   -2.1359942300    4.2315193045
H        0.3678241226   -3.6915624737    5.9131700491
H        0.8990181879   -5.8141869408    4.7604700286
H       -2.4931233801   -2.7667846013    2.8366719184
H        2.0219538415   -0.5379329472    5.1272876793
H       -0.1640371451    0.6148752243    4.7901340093
29   

C        3.0109102692   -3.2106044550    1.1639777698
C        1.6670844903   -2.8329399281    1.1109323648
C        3.7883953317   -2.8520036377    2.2679932360
C        1.1031930085   -2.0985475601    2.1597315584
C        3.2203489712   -2.1242670853    3.3200071633
C       -0.2848488834   -3.9988431405    4.9700111841
C       -0.1021930006   -5.2149660113    4.3105705467
C       -1.9619152411   -3.3875147532    3.3474517617
C        1.8688635228   -1.7415967136    3.2828036226
C       -1.2022782230   -3.0630770751    4.4798432075
C       -0.8355590858   -5.5270237857    3.1602280157
C       -1.7834793125   -4.6052547139    2.6772829683
C        1.2769913305   -1.0028857039    4.3975854594
C       -0.0020855130   -0.5246148487    4.5430945662
O       -2.6422636386   -0.7900313464    4.9296855776
O       -1.1420886692   -1.5469489396    6.7283977375
S       -1.3654795570   -1.4326158144    5.2783610517
Cl      -0.5560237295   -7.0515976068    2.3475926202
Cl      -2.7307572886   -4.9477507605    1.2462252141
H        3.4488971385   -3.7779287224    0.3501712432
H        1.0593468425   -3.1084658535    0.2562526204
H        4.8331225015   -3.1391507169    2.3098531643
H        0.0607433445   -1.8095111751    2.0966068542
H        3.8398118700   -1.8591736785    4.1696606535
H        0.3000442937   -3.7726870212    5.8579522852
H        0.6234097817   -5.9261533329    4.6874520032
H       -2.6940277048   -2.6794339863    2.9683885794
H        1.9562845749   -0.7375184681    5.2014664084
H       -0.2199930813    0.5079099513    4.3190802107
29   

C        3.4358107393   -2.9936353385    1.0959720281
C        2.0429110869   -2.8871932751    1.0651304328
C        4.1454217104   -2.4928676032    2.1905382328
C        1.3626957386   -2.2738376802    2.1230938205
C        3.4624942822   -1.8917588733    3.2540525585
C       -0.4883855281   -4.1043452011    4.9877543633
C       -0.4714792625   -5.3497708200    4.3579459424
C       -2.1815406892   -3.3612852852    3.4383316533
C        2.0632571542   -1.7704198418    3.2319095748
C       -1.3337515686   -3.0918116102    4.5215928948
C       -1.2998417743   -5.6132311770    3.2608548239
C       -2.1701315567   -4.6080325732    2.7987480972
C        1.3546585436   -1.1353721192    4.3402092845
C        0.0527815110   -0.6746322947    4.4313703258
O       -2.5578520171   -0.7123087716    5.0277606290
O       -0.9799028516   -1.5572673152    6.7284376250
S       -1.3104751745   -1.4436780373    5.2988724073
Cl      -1.2354980263   -7.1830132477    2.4895737614
Cl      -3.2316245365   -4.8865199814    1.4353228217
H        3.9641338752   -3.4619567813    0.2728459453
H        1.4878584110   -3.2794651321    0.2203185326
H        5.2268453751   -2.5676508854    2.2145603952
H        0.2818753951   -2.2003447362    2.0829135467
H        4.0301869784   -1.5054699787    4.0934662240
H        0.1629773510   -3.9201177958    5.8385430238
H        0.1939723347   -6.1250783809    4.7194471635
H       -2.8592338153   -2.5913090986    3.0789718484
H        1.9297833769   -1.0273808248    5.2544856085
H       -0.2573005273    0.1261618275    3.7791387250
