22   

C        1.8238939049   -0.2070890660    0.1170454580
C        0.5374414741   -0.4647881266    0.5837178759
C        2.9231732355   -0.4412936464    0.9457545090
C        0.3551696751   -0.9612012541    1.8752614361
C        2.7602446371   -0.9282505904    2.2537354472
C        1.4492037146   -1.2002007573    2.7250431257
C        3.9531985060   -1.1290921218    3.0993932345
C        5.2694877430   -0.8026800157    2.8750549637
C        1.1983327691   -1.7642437625    4.1035145445
C        6.3746217888   -1.6108833429    2.2243155503
H        1.9718099728    0.1771392840   -0.8856539285
H       -0.3198393737   -0.2828043888   -0.0543816448
H        3.9180024432   -0.2317798711    0.5709698280
H       -0.6522450569   -1.1634607134    2.2200313335
H        3.7298488104   -1.3035487124    4.1440642988
H        5.7022178424   -0.3425201848    3.7570548187
H        1.7832097284   -2.6777520158    4.2492456072
H        1.4768369489   -1.0315673659    4.8668704581
H        0.1420660668   -2.0156355358    4.2379588220
H        7.1847198998   -1.7954642189    2.9363356878
H        5.9841739822   -2.5733418866    1.8799820985
H        6.7767262188   -1.0679620830    1.3641067179
22   

C        1.9183345101   -0.2777417833    0.1185838148
C        0.6174747098   -0.5044750686    0.5602170090
C        2.9921114405   -0.4761812482    0.9889903238
C        0.3952460170   -0.9337006581    1.8692726450
C        2.7888643338   -0.8920198415    2.3165916628
C        1.4628198428   -1.1326063309    2.7618781488
C        3.9509288606   -1.0579426601    3.2115149556
C        5.2683485942   -0.7942056483    2.9670551580
C        1.1704163891   -1.6401210796    4.1540500756
C        6.2419611261   -1.5944965357    2.1295795955
H        2.0972328014    0.0553851693   -0.8972533507
H       -0.2198948664   -0.3517619534   -0.1111349268
H        3.9967903159   -0.2881631593    0.6303156630
H       -0.6225419500   -1.1173181898    2.1933797826
H        3.7030021227   -1.1413230320    4.2621052800
H        5.7822489008   -0.4269998222    3.8489913731
H        1.7666142467   -2.5341692582    4.3621102106
H        1.4053137657   -0.8692984495    4.8939235081
H        0.1152339449   -1.9095600671    4.2590354486
H        7.0998469899   -1.9037225191    2.7342406804
H        5.7522086357   -2.4888575867    1.7321632021
H        6.5998651758   -0.9888065880    1.2919910208
22   

C        1.9917915807   -0.3489969973    0.1221959697
C        0.6818365672   -0.5520886020    0.5468538255
C        3.0465616485   -0.4987248409    1.0249047324
C        0.4314157589   -0.9073549298    1.8724888015
C        2.8154364435   -0.8377613234    2.3709119676
C        1.4791243396   -1.0523456997    2.7983626753
C        3.9496860461   -0.9540397934    3.3096488035
C        5.2718480682   -0.8033437466    3.0405424708
C        1.1576180075   -1.4986862083    4.2049747330
C        6.1010109956   -1.6096942927    2.0681300118
H        2.1926159706   -0.0702729266   -0.9058463393
H       -0.1404884219   -0.4390205703   -0.1504459887
H        4.0551494689   -0.3217884878    0.6738539993
H       -0.5927761190   -1.0783270319    2.1830016414
H        3.6919865562   -0.9501577393    4.3614398418
H        5.8576031280   -0.5054431600    3.9034995728
H        1.7703396825   -2.3648704888    4.4744883727
H        1.3488639330   -0.6868392029    4.9125504323
H        0.1078217398   -1.7947358528    4.2909099220
H        6.9752435503   -2.0296848152    2.5745421847
H        5.5088771700   -2.4316259685    1.6536663971
H        6.4424831698   -0.9718323112    1.2476945960
22   

C        2.0318560319   -0.3945841773    0.1304415762
C        0.7175282033   -0.5867457384    0.5443888417
C        3.0749005246   -0.5037358746    1.0522010604
C        0.4508629980   -0.8874260779    1.8797627161
C        2.8291929341   -0.7905430184    2.4091641409
C        1.4862260046   -0.9883273483    2.8252506750
C        3.9408906428   -0.8659347598    3.3788418925
C        5.2662531168   -0.8478981216    3.1106868506
C        1.1461876005   -1.3889988496    4.2413209732
C        5.9805488523   -1.6240643588    2.0322286914
H        2.2454053529   -0.1531385206   -0.9044502805
H       -0.0953678521   -0.5065882159   -0.1683571768
H        4.0820377243   -0.3226403358    0.7023682379
H       -0.5766025635   -1.0524807774    2.1824840974
H        3.6784648384   -0.8008390439    4.4276076548
H        5.8956558805   -0.6283567841    3.9663014978
H        1.7706009100   -2.2319426124    4.5544855532
H        1.3063246309   -0.5480946242    4.9219545229
H        0.1016393172   -1.7056826839    4.3174467727
H        6.8492915543   -2.1381800930    2.4542168957
H        5.3150212292   -2.3740221837    1.5932338564
H        6.3252582068   -0.9468398541    1.2453356947
22   

C        2.0535810035   -0.4207018627    0.1368668790
C        0.7393586163   -0.6100146291    0.5501546713
C        3.0934586758   -0.4962644720    1.0653316613
C        0.4694986476   -0.8706703460    1.8927206435
C        2.8468140678   -0.7478440385    2.4304152912
C        1.5013860245   -0.9355559739    2.8452690209
C        3.9458931223   -0.7887228665    3.4177773021
C        5.2640742623   -0.9128678013    3.1642209043
C        1.1560978463   -1.3032152191    4.2691385148
C        5.8994606687   -1.6321136966    2.0022226780
H        2.2696893630   -0.2045928007   -0.9030929822
H       -0.0707969796   -0.5570593845   -0.1682305359
H        4.0952100167   -0.3033630371    0.7093364001
H       -0.5580709681   -1.0344218278    2.1957065555
H        3.6843034452   -0.6786665476    4.4630944928
H        5.9159469228   -0.7730988419    4.0197200649
H        1.7924247786   -2.1260213307    4.6107855243
H        1.2943810670   -0.4413586027    4.9278237469
H        0.1172229464   -1.6382710506    4.3446023192
H        6.7612558296   -2.2091085552    2.3507465811
H        5.1911202105   -2.3263976261    1.5395037806
H        6.2474063717   -0.9131202631    1.2547841832
22   

C        2.0629796353   -0.4432212343    0.1397020450
C        0.7492917135   -0.6222579843    0.5573866090
C        3.1032782443   -0.4975045774    1.0690274025
C        0.4803157108   -0.8485757211    1.9058952097
C        2.8595696995   -0.7188581567    2.4407434345
C        1.5125301534   -0.8905700754    2.8594949865
C        3.9528406501   -0.7386497734    3.4356488000
C        5.2544893322   -0.9988925713    3.2117394484
C        1.1655652451   -1.2283324508    4.2905066349
C        5.8636128270   -1.6272916029    1.9867068803
H        2.2785436762   -0.2496189326   -0.9048032307
H       -0.0610118184   -0.5867517357   -0.1619059268
H        4.1005926497   -0.3026603346    0.7039114226
H       -0.5471946552   -1.0048275294    2.2129413999
H        3.6914950642   -0.6005130052    4.4777064966
H        5.9040451689   -0.9403749504    4.0783408582
H        1.8047226337   -2.0405464610    4.6517838877
H        1.2975129366   -0.3516191714    4.9304995909
H        0.1284681171   -1.5678375763    4.3705945274
H        6.7294477975   -2.2304570628    2.2758382633
H        5.1481019927   -2.2880746612    1.4877514364
H        6.2052062119   -0.8549921110    1.2913246307
22   

C        2.0589636586   -0.4656191106    0.1389580895
C        0.7457546817   -0.6236756852    0.5652209291
C        3.1026179807   -0.5086507021    1.0650477054
C        0.4806074754   -0.8162939958    1.9193643071
C        2.8641086041   -0.6975869135    2.4429809536
C        1.5161818959   -0.8455654684    2.8698582959
C        3.9580651193   -0.7077045078    3.4381311429
C        5.2327158947   -1.0947516037    3.2469790540
C        1.1703436435   -1.1534237623    4.3080242881
C        5.8574555298   -1.6106930191    1.9790487789
H        2.2718155291   -0.2962092054   -0.9102981562
H       -0.0670204270   -0.5978164338   -0.1516904259
H        4.0970982455   -0.3253739705    0.6880796585
H       -0.5469111040   -0.9575773810    2.2334914662
H        3.6968005332   -0.5531447914    4.4778475142
H        5.8635514059   -1.1164574066    4.1289939287
H        1.8048313540   -1.9629769946    4.6833606313
H        1.3089843257   -0.2656170662    4.9309825609
H        0.1315553180   -1.4855493308    4.3967288554
H        6.7412419646   -2.2074330606    2.2237617163
H        5.1624217199   -2.2565638161    1.4340256142
H        6.1776743803   -0.7791711594    1.3444353427
22   

C        2.0671777735   -0.4350000101    0.1363004254
C        0.7549784874   -0.4523378831    0.5946924524
C        3.0975245800   -0.9010949509    0.9548075507
C        0.4772957444   -0.9426990067    1.8692444715
C        2.8446591691   -1.4084809087    2.2465575105
C        1.4988824525   -1.4315440763    2.7022951070
C        3.9260596001   -1.9396228117    3.1032682177
C        5.2378426250   -1.6446831955    3.0370857067
C        1.1458388780   -1.8661716768    4.1054059690
C        5.8809450618   -0.4963587654    2.3060412440
H        2.2888977135   -0.0711218863   -0.8603810785
H       -0.0474115742   -0.0858264091   -0.0354453822
H        4.0924040992   -0.9137582902    0.5353243448
H       -0.5482975450   -0.9322530393    2.2192708375
H        3.6481076170   -2.5851507475    3.9274683686
H        5.8749510558   -2.1620607448    3.7461399818
H        1.2420808668   -2.9510278961    4.2026221765
H        1.8062536817   -1.3772337555    4.8289581031
H        0.1192328955   -1.5816047895    4.3551056904
H        6.2061574577   -0.8119298557    1.3103804680
H        5.1926203341    0.3502614590    2.2224332784
H        6.7619352337   -0.1568685661    2.8589233338
22   

C        2.0580579903   -0.4500265950    0.1255978536
C        0.7448752832   -0.4554805943    0.5831433827
C        3.0867069577   -0.8996167661    0.9555685663
C        0.4646804191   -0.9146920336    1.8691705516
C        2.8291081864   -1.3790193285    2.2561006250
C        1.4846685147   -1.3855408140    2.7143208577
C        3.9150337739   -1.8907034038    3.1183492119
C        5.2400121978   -1.6998802725    2.9590494615
C        1.1313425300   -1.7924703236    4.1254796570
C        5.9150569331   -0.5078940355    2.3307756808
H        2.2817188880   -0.1067062318   -0.8779107440
H       -0.0564150787   -0.1027211327   -0.0561754421
H        4.0866940993   -0.9159319479    0.5466615397
H       -0.5612954384   -0.8951103515    2.2177456345
H        3.6353682806   -2.5142682569    3.9586950042
H        5.8747524517   -2.2830270889    3.6173789158
H        1.2329787549   -2.8746668346    4.2450939750
H        1.7886210096   -1.2857882423    4.8395533976
H        0.1026662921   -1.5087002897    4.3673852588
H        6.2499509430   -0.7510358866    1.3181494892
H        5.2363969745    0.3500314020    2.2951329749
H        6.7901697244   -0.2236501741    2.9227784628
22   

C        2.0349158252   -0.4713342885    0.1039469902
C        0.7226280194   -0.4753434443    0.5661282486
C        3.0700336681   -0.8861219079    0.9441739530
C        0.4500562184   -0.8946634379    1.8678993861
C        2.8177360668   -1.3290617652    2.2572417952
C        1.4769584260   -1.3284083438    2.7243150794
C        3.9198344465   -1.7996901563    3.1208236859
C        5.2469771090   -1.7224261708    2.8729396210
C        1.1332241572   -1.7012185709    4.1470860184
C        5.9987333743   -0.5274471151    2.3412925180
H        2.2527708552   -0.1538202613   -0.9092783951
H       -0.0840023434   -0.1507881397   -0.0813624973
H        4.0748887532   -0.8952977086    0.5445812447
H       -0.5751105200   -0.8744254720    2.2188889506
H        3.6430914581   -2.3851400507    3.9889662035
H        5.8587634348   -2.3712128609    3.4903668845
H        1.2588560569   -2.7770969735    4.2978596125
H        1.7801810007   -1.1600709138    4.8450258607
H        0.0983397100   -1.4344004477    4.3815793081
H        6.3304812676   -0.7159203484    1.3160705872
H        5.3631388325    0.3635844863    2.3540592517
H        6.8787099362   -0.3326812285    2.9616238210
22   

C        1.9937622352   -0.4944367297    0.0766003571
C        0.6846623812   -0.4949488429    0.5497207609
C        3.0389929565   -0.8712666919    0.9223819812
C        0.4256542803   -0.8694794441    1.8683869284
C        2.7983672414   -1.2711830044    2.2498843775
C        1.4633083196   -1.2623124267    2.7314568392
C        3.9214517437   -1.6985684586    3.1090830210
C        5.2419759419   -1.7308743493    2.7963906330
C        1.1351941678   -1.5976755750    4.1670718438
C        6.1077973731   -0.5631689280    2.3833631955
H        2.2011218780   -0.2070124303   -0.9477410144
H       -0.1301939351   -0.2013048025   -0.1022069852
H        4.0466370087   -0.8760822191    0.5268578479
H       -0.5971069283   -0.8480638714    2.2263250960
H        3.6481882862   -2.2394864096    4.0065492964
H        5.8064744868   -2.4531002349    3.3762826752
H        1.2883599807   -2.6649516269    4.3508522688
H        1.7722006122   -1.0193168341    4.8438879631
H        0.0946748071   -1.3507360954    4.3982532074
H        6.4446434141   -0.6929114053    1.3507599950
H        5.5447313895    0.3725664841    2.4563094724
H        6.9850505096   -0.4945416170    3.0336142423
22   

C        1.9185618412   -0.5525210530    0.0360077213
C        0.6188309820   -0.5409068322    0.5352538091
C        2.9844482843   -0.8698184021    0.8805124588
C        0.3900130597   -0.8417426876    1.8785285876
C        2.7739010709   -1.1922928157    2.2327078900
C        1.4493738642   -1.1698437996    2.7423154417
C        3.9266234170   -1.5531267161    3.0810851179
C        5.2385905003   -1.6996196582    2.7315325726
C        1.1515604692   -1.4443292698    4.1973709154
C        6.2506737079   -0.6176219663    2.4240520013
H        2.1025696266   -0.3193240356   -1.0064242412
H       -0.2124402962   -0.2955831373   -0.1159192763
H        3.9881241630   -0.8807370079    0.4732122719
H       -0.6263721189   -0.8163323462    2.2539867123
H        3.6651013562   -2.0151941003    4.0246188122
H        5.7264094825   -2.4872281353    3.2958484680
H        1.3504839296   -2.4941904054    4.4318563825
H        1.7723802607   -0.8077376807    4.8356442550
H        0.1039034163   -1.2310464974    4.4296511750
H        6.6016709341   -0.7166666704    1.3927886607
H        5.7965743427    0.3704764953    2.5470766103
H        7.1086473946   -0.6958279397    3.0985683417
22   

C        1.8215680444   -0.6081662316   -0.0009521528
C        0.5369179628   -0.5839041375    0.5359257826
C        2.9148658713   -0.8748457695    0.8258536011
C        0.3506658670   -0.8206526855    1.8986416520
C        2.7473863716   -1.1288996072    2.1976765631
C        1.4385475029   -1.0939699832    2.7459729009
C        3.9329503842   -1.4362005917    3.0214303385
C        5.2415866369   -1.6451174488    2.6562640925
C        1.1845712593   -1.3152879877    4.2183103784
C        6.3814341860   -0.6558966561    2.5141390567
H        1.9726072599   -0.4235959419   -1.0583251230
H       -0.3158009506   -0.3795797400   -0.1015234454
H        3.9081870248   -0.8951789454    0.3934832976
H       -0.6550003387   -0.7905329252    2.3016152936
H        3.6992807471   -1.8194281092    4.0064155282
H        5.6461094843   -2.5098999272    3.1714709745
H        1.4276998861   -2.3463914361    4.4918122760
H        1.7960196356   -0.6299772106    4.8135397347
H        0.1349308558   -1.1324310689    4.4668885582
H        6.7794739789   -0.6893170156    1.4958773905
H        6.0267369192    0.3588479216    2.7186472841
H        7.1858833463   -0.8944909312    3.2164458095
