19   

C        0.2864808700   -1.1772538858    0.6306168389
C        2.6562739766   -0.8078656654    0.4968734249
C        0.4337981572   -1.4176322041    2.0060663524
C        2.7337698966   -1.0584042770    1.8789037921
C        1.4104712069   -0.8736013174   -0.1498429341
C        1.1656998246   -0.5942062121   -1.6246463529
C        1.7530027613   -1.5937701783    4.0526577480
N        1.6391338698   -1.3614685753    2.6047002621
N        2.2551292836   -0.6108878080   -2.4426087570
O        0.0635738817   -0.3758917676   -2.0890632487
H       -0.6991717602   -1.2198421334    0.1684591617
H        3.5573719238   -0.5464107846   -0.0498074613
H       -0.4534317463   -1.6503498770    2.5895151900
H        3.7031378382   -0.9986696988    2.3671968924
H        1.8705904214   -2.6625808118    4.2599610250
H        2.6149080100   -1.0560641444    4.4604992590
H        0.8606472928   -1.2257958854    4.5693541933
H        2.0596278789   -0.4491957637   -3.4266777699
H        3.1639007275   -0.9308467383   -2.1383675465
19   

C        0.3036069957   -1.1998505692    0.6072979876
C        2.6563242078   -0.7241135362    0.5104629009
C        0.4471437712   -1.4691835394    1.9779825977
C        2.7310891088   -1.0063200583    1.8863185650
C        1.4219075580   -0.8248216757   -0.1501957205
C        1.1976617185   -0.5066853582   -1.6174457621
C        1.7508066512   -1.6326883618    4.0358363740
N        1.6429201784   -1.3749178450    2.5917366059
N        2.2370359440   -0.7602820158   -2.4587974403
O        0.1364295154   -0.1117755134   -2.0587091659
H       -0.6729411556   -1.2670211418    0.1292770905
H        3.5460270869   -0.4053383292   -0.0259814636
H       -0.4350908073   -1.7534841402    2.5459383384
H        3.6917338916   -0.9146585876    2.3867669242
H        1.9020417942   -2.7008869987    4.2233003402
H        2.5905071537   -1.0750786083    4.4628771605
H        0.8420423022   -1.3043325055    4.5506746311
H        2.0495035829   -0.5970351862   -3.4441121943
H        3.0682442984   -1.2525596412   -2.1600328728
19   

C        0.3257686691   -1.2238159584    0.5927635433
C        2.6570350556   -0.6498709822    0.5313247390
C        0.4675443470   -1.5196155046    1.9583684503
C        2.7314624584   -0.9610114946    1.9007543465
C        1.4341119301   -0.7802619666   -0.1424254813
C        1.2309157939   -0.4273175026   -1.6034517451
C        1.7564794518   -1.6708809278    4.0266198890
N        1.6525893163   -1.3893139150    2.5866728919
N        2.1631952416   -0.8982640296   -2.4724962612
O        0.2377259902    0.1368138428   -2.0167400105
H       -0.6417003176   -1.3154449207    0.1011158830
H        3.5353589550   -0.2844005360    0.0049101894
H       -0.4073645700   -1.8523735230    2.5111276890
H        3.6832490438   -0.8415136489    2.4121499099
H        1.9393627665   -2.7371314776    4.1958470258
H        2.5749170632   -1.0956665120    4.4712743165
H        0.8338518243   -1.3799422051    4.5393548658
H        1.9745139752   -0.7263411251   -3.4560266683
H        2.9106519588   -1.5147933127   -2.1811226488
19   

C        0.3586359055   -1.2687973475    0.5748070860
C        2.6627171898   -0.5956878064    0.5503218845
C        0.4986204826   -1.5835782921    1.9366257258
C        2.7369253613   -0.9283432964    1.9144187260
C        1.4538003414   -0.7611299479   -0.1387378690
C        1.2674855389   -0.3691497741   -1.5917339724
C        1.7688278311   -1.7086740061    4.0184269170
N        1.6699868432   -1.4131286009    2.5809214599
N        2.0351645654   -1.0228903143   -2.4987149654
O        0.3893875235    0.3824005738   -1.9634043567
H       -0.5992468071   -1.3886617885    0.0714427812
H        3.5287552981   -0.1846121964    0.0367282997
H       -0.3670786490   -1.9619123554    2.4743596017
H        3.6776853936   -0.7770627914    2.4376709843
H        1.9890522343   -2.7693953323    4.1772526260
H        2.5607159299   -1.1091744404    4.4788706667
H        0.8308550138   -1.4574667887    4.5243381294
H        1.8451646863   -0.8139296754   -3.4746890381
H        2.6826305450   -1.7536086806   -2.2315563057
19   

C        0.4140868393   -1.3083822636    0.5436590505
C        2.6859558888   -0.5406428721    0.5833093054
C        0.5362419492   -1.6378273937    1.9041730119
C        2.7443133233   -0.8901937712    1.9434727837
C        1.5026591056   -0.7457761842   -0.1378624091
C        1.3479185484   -0.3091795893   -1.5821885613
C        1.7613893400   -1.7348163401    4.0148512021
N        1.6841869978   -1.4283613575    2.5783108800
N        1.9106401949   -1.1033772470   -2.5239326096
O        0.6790869996    0.6486504314   -1.9108594707
H       -0.5280623021   -1.4574807744    0.0197768844
H        3.5435592928   -0.0832094096    0.0949545752
H       -0.3250572352   -2.0579342270    2.4173904839
H        3.6658402305   -0.7056582701    2.4897765476
H        2.0334060395   -2.7840976863    4.1690474103
H        2.5080659625   -1.0992154275    4.5017590876
H        0.7988262218   -1.5389025138    4.4985086079
H        1.7567672926   -0.8297719811   -3.4901678260
H        2.4127564399   -1.9498816277   -2.2864857914
19   

C        0.8825351905   -0.0594729013    0.7027870194
C        2.5012435789   -1.8071478066    0.4445668675
C        0.8111572595   -0.3740664340    2.0711538295
C        2.3870413261   -2.0727581818    1.8193590187
C        1.7380838303   -0.7861865318   -0.1357525593
C        1.9094634904   -0.3965973490   -1.5921232880
C        1.4959924894   -1.6360173183    4.0497537514
N        1.5528149555   -1.3646887895    2.6052298299
N        1.0642500478   -0.9669575755   -2.4828358982
O        2.7662935652    0.3754368720   -1.9692528339
H        0.2986470643    0.7630116996    0.2951267129
H        3.2023169419   -2.3683549149   -0.1696642799
H        0.1503096198    0.2104134325    2.7062081371
H        3.0007017349   -2.8596413253    2.2506659845
H        0.8076016689   -2.4615886667    4.2579218032
H        2.4907018517   -1.8938844269    4.4279616273
H        1.1585900623   -0.7476437606    4.5932223956
H        1.1954343628   -0.7062583290   -3.4559398367
H        0.3487855257   -1.6262121973   -2.2022281471
19   

C        0.8746126593   -0.1262219122    0.6757125567
C        2.5759319244   -1.7990355678    0.4797696244
C        0.7899626248   -0.4227781901    2.0479175867
C        2.4469952266   -2.0494323942    1.8555051745
C        1.7751244053   -0.8284857026   -0.1353722821
C        1.9775249397   -0.4608081465   -1.5933599693
C        1.4897034684   -1.6234609611    4.0598047318
N        1.5643845157   -1.3703033949    2.6128111506
N        0.9964967806   -0.8231676166   -2.4546216147
O        3.0037437706    0.0360235884   -2.0094246289
H        0.2621976899    0.6634961439    0.2462666019
H        3.3168118607   -2.3322778089   -0.1128933549
H        0.0909760721    0.1402475356    2.6611481660
H        3.0890240542   -2.7996249157    2.3102542538
H        0.8287078232   -2.4714380304    4.2667903165
H        2.4857603968   -1.8392144782    4.4602004091
H        1.1094036202   -0.7409123908    4.5840437150
H        1.1705694742   -0.6302855176   -3.4367984537
H        0.1717264888   -1.3264504265   -2.1521574382
19   

C        0.8464008206   -0.1789808379    0.6543208252
C        2.6181517330   -1.7785023927    0.5015768719
C        0.7601006038   -0.4591873190    2.0303471466
C        2.4864878764   -2.0152305671    1.8789352414
C        1.7824719591   -0.8539114350   -0.1385412639
C        1.9917886041   -0.5166036486   -1.6026124916
C        1.4865931890   -1.6036874104    4.0662147043
N        1.5676234456   -1.3647444277    2.6171636252
N        0.9146193507   -0.6557219641   -2.4166198162
O        3.0829588938   -0.2615684595   -2.0700736200
H        0.2046972038    0.5785127033    0.2103375359
H        3.3863299704   -2.2883364291   -0.0774847898
H        0.0312919224    0.0816305982    2.6286532765
H        3.1552490803   -2.7314467021    2.3496821029
H        0.8781989234   -2.4898532031    4.2746581441
H        2.4881308753   -1.7498995742    4.4840510196
H        1.0417505031   -0.7413717318    4.5729276851
H        1.0865807598   -0.5106902719   -3.4074528427
H        0.0291888745   -1.0146949479   -2.0825186763
19   

C        0.8337299207   -0.2572101957    0.6146948343
C        2.6714569585   -1.7811927376    0.5168617096
C        0.7478756253   -0.5065116676    1.9970713216
C        2.5390827132   -1.9898271951    1.8982460154
C        1.8039498565   -0.9090017770   -0.1557662292
C        2.0105067482   -0.6317080283   -1.6332822940
C        1.5000104267   -1.5732172235    4.0658576720
N        1.5872121333   -1.3620727925    2.6128737165
N        0.8853041779   -0.5576089552   -2.3938100279
O        3.1078139981   -0.5838263526   -2.1519079104
H        0.1616699504    0.4614347560    0.1522611028
H        3.4620497577   -2.2774528681   -0.0441706862
H       -0.0089987230    0.0161395043    2.5763788804
H        3.2324871660   -2.6672694904    2.3902717889
H        0.9102353626   -2.4687672714    4.2875104808
H        2.5010932591   -1.6888896208    4.4941608751
H        1.0320786212   -0.7110338972    4.5515210732
H        1.0379269039   -0.4520597388   -3.3928834827
H       -0.0307379743   -0.7760487099   -2.0240712467
19   

C        0.8162636401   -0.3239022777    0.6050655645
C        2.7236702454   -1.7580643647    0.5582565136
C        0.7277433079   -0.5489421294    1.9917759672
C        2.5871789763   -1.9455327758    1.9418445602
C        1.8253951989   -0.9403409831   -0.1446399812
C        2.0329836365   -0.7216045589   -1.6332575127
C        1.5021185557   -1.5418519591    4.0889338403
N        1.5993081015   -1.3505097258    2.6338699009
N        0.9233674615   -0.4361053863   -2.3689174360
O        3.1117624443   -0.8482510126   -2.1779045967
H        0.1104051353    0.3508677923    0.1285535322
H        3.5389672354   -2.2357560976    0.0163378392
H       -0.0606962911   -0.0536386919    2.5527133860
H        3.3049256110   -2.5822362866    2.4529983445
H        0.9276702605   -2.4455077305    4.3180327136
H        2.5009024440   -1.6327927726    4.5283426809
H        1.0135161591   -0.6816074112    4.5573384844
H        1.0769809268   -0.3492310447   -3.3697147113
H       -0.0111436802   -0.5045669044   -1.9891408686
19   

C        0.7842931523   -0.3873911720    0.5957805507
C        2.7581893184   -1.7249737519    0.5794811302
C        0.7079555465   -0.5849943153    1.9876883776
C        2.6324778181   -1.8880853125    1.9668124821
C        1.8227128695   -0.9666135046   -0.1441015965
C        2.0156619535   -0.8104768409   -1.6451238941
C        1.5246047411   -1.4991066996    4.1045925865
N        1.6174289552   -1.3276115876    2.6467933625
N        0.9601305889   -0.3259944160   -2.3572048916
O        3.0469732608   -1.1076016000   -2.2155983902
H        0.0366331354    0.2340429506    0.1124605696
H        3.5917906230   -2.1840092346    0.0491655913
H       -0.1059965473   -0.1203124355    2.5382802692
H        3.3788360430   -2.4809026508    2.4896424530
H        0.9803678733   -2.4179556298    4.3469308236
H        2.5251110790   -1.5505849120    4.5463846491
H        1.0068964962   -0.6484884254    4.5590347018
H        1.1104158076   -0.2587609695   -3.3600538583
H        0.0395266619   -0.2025433677   -1.9601012328
19   

C        0.7330929598   -0.5094652467    0.5954289073
C        2.8006320321   -1.6905354307    0.6002610600
C        0.6804948776   -0.6719503111    1.9930510126
C        2.6974802562   -1.8231397831    1.9925297119
C        1.8080301234   -1.0241175393   -0.1405108236
C        1.9867015621   -0.9252420445   -1.6510636572
C        1.5732299906   -1.4671338745    4.1272180890
N        1.6480825006   -1.3223405851    2.6655148785
N        1.0220090917   -0.2819136544   -2.3565450078
O        2.9426418239   -1.3964477572   -2.2359248230
H       -0.0755949638    0.0201392394    0.1023208380
H        3.6606374750   -2.1092615505    0.0787429348
H       -0.1670763553   -0.2617964732    2.5361651411
H        3.4883348015   -2.3463128900    2.5242025974
H        1.1022174538   -2.4195893730    4.3923582447
H        2.5760266029   -1.4317256903    4.5653213104
H        0.9924887985   -0.6491440158    4.5650000168
H        1.1765408048   -0.2359157895   -3.3599045678
H        0.2083987693    0.1410938387   -1.9342042237
19   

C        0.6829829777   -0.5837034880    0.5767173092
C        2.8300345531   -1.6209606337    0.5906510162
C        0.6504082721   -0.7200441818    1.9776510563
C        2.7435701560   -1.7305240897    1.9862239645
C        1.7898761614   -1.0371292503   -0.1516997739
C        1.9236473073   -0.9700900334   -1.6656918770
C        1.6043802771   -1.4156119458    4.1199157684
N        1.6655449519   -1.2877436025    2.6560036273
N        1.0517816957   -0.1596717989   -2.3282856543
O        2.7670126591   -1.5886321250   -2.2849475939
H       -0.1708449946   -0.1408936161    0.0731025840
H        3.7078173594   -1.9978071018    0.0668961770
H       -0.2232778245   -0.3644812045    2.5178879988
H        3.5690621560   -2.1912468689    2.5229960777
H        1.1844844945   -2.3875313588    4.4001120614
H        2.6056971025   -1.3228741972    4.5528752568
H        0.9837269079   -0.6227993800    4.5491488322
H        1.1835300954   -0.1154584643   -3.3350133458
H        0.4319891033    0.4834603046   -1.8564218463
19   

C        0.6472606038   -0.6382504817    0.5718442822
C        2.8442196564   -1.5713800722    0.5825503586
C        0.6334853338   -0.7499983810    1.9749636443
C        2.7745582419   -1.6591475875    1.9809556619
C        1.7707157047   -1.0494969952   -0.1556935997
C        1.8566075560   -1.0280604318   -1.6719123050
C        1.6351305938   -1.3699723778    4.1185948552
N        1.6815078967   -1.2561678496    2.6529808535
N        1.1315717341   -0.0691699481   -2.3111899880
O        2.5737119791   -1.7765258896   -2.3059643140
H       -0.2313123948   -0.2561408614    0.0593263092
H        3.7286196012   -1.9233992668    0.0529402682
H       -0.2534346018   -0.4310176512    2.5164888998
H        3.6236695918   -2.0740290618    2.5182665210
H        1.2724076129   -2.3609375004    4.4118703089
H        2.6315999319   -1.2156132131    4.5450023723
H        0.9718976670   -0.6093455280    4.5422992494
H        1.2477567989   -0.0382672603   -3.3202917684
H        0.6728042297    0.6836446201   -1.8162007037
19   

C        0.6014738179   -0.6848093845    0.5733265652
C        2.8411953837   -1.5171572219    0.5641365851
C        0.6093486272   -0.7834575095    1.9771144076
C        2.7911806187   -1.5946128010    1.9644135102
C        1.7363018109   -1.0493131697   -0.1613831732
C        1.7729551764   -1.0606300802   -1.6783900612
C        1.6615759958   -1.3441098325    4.1126318785
N        1.6880852045   -1.2352651781    2.6461363255
N        1.2317293030    0.0176403587   -2.3048139555
O        2.3441445223   -1.9195111655   -2.3198492451
H       -0.2971048360   -0.3515288300    0.0601089829
H        3.7296175621   -1.8412276645    0.0239972849
H       -0.2857679654   -0.5022904741    2.5260655907
H        3.6627350676   -1.9688706785    2.4955722464
H        1.3553686275   -2.3517922851    4.4134674141
H        2.6520545906   -1.1341909492    4.5290618802
H        0.9616956277   -0.6187924501    4.5392734480
H        1.3339644635    0.0340939804   -3.3156770317
H        0.9120875531    0.8323184102   -1.7971893639
19   

C        0.5489804597   -0.7298392462    0.5887153710
C        2.8251118669   -1.4634914819    0.5507809820
C        0.5818105398   -0.8164633139    1.9925572061
C        2.7981071724   -1.5314804037    1.9526208771
C        1.6894155486   -1.0497851109   -0.1579476132
C        1.6767117763   -1.0897704077   -1.6743369146
C        1.6870833100   -1.3202021109    4.1151439567
N        1.6895488579   -1.2156783307    2.6480904406
N        1.3504569205    0.0655163354   -2.3068449263
O        2.0607029352   -2.0493533207   -2.3115037612
H       -0.3686432511   -0.4413967111    0.0813250690
H        3.7160432035   -1.7584487437   -0.0011073364
H       -0.3173248867   -0.5716722833    2.5522639658
H        3.6915197788   -1.8653352983    2.4742965609
H        1.4423457636   -2.3426391048    4.4225616367
H        2.6687393180   -1.0523898962    4.5189758715
H        0.9514766287   -0.6350949540    4.5480860271
H        1.4279881645    0.0530137067   -3.3198540468
H        1.1742974980    0.9251845572   -1.8024601257
19   

C        0.5131956429   -0.7853518027    0.5900599198
C        2.8243003487   -1.4068817388    0.5321537979
C        0.5626373159   -0.8658383234    1.9932914601
C        2.8117814610   -1.4716425896    1.9348854369
C        1.6620386824   -1.0535442097   -0.1651374088
C        1.6181017617   -1.1039379735   -1.6807218320
C        1.7080809117   -1.3131990819    4.1064266533
N        1.6944535795   -1.2091932024    2.6393848405
N        1.5313937130    0.0847768965   -2.3243078096
O        1.7612985977   -2.1321158690   -2.3095590642
H       -0.4204445019   -0.5433230057    0.0872177646
H        3.7236746255   -1.6611635215   -0.0254898701
H       -0.3428161706   -0.6638760888    2.5598768514
H        3.7241085218   -1.7605434344    2.4505997776
H        1.5006305770   -2.3432931589    4.4157989815
H        2.6834171775   -1.0124952991    4.5022200659
H        0.9532950140   -0.6532284784    4.5454095013
H        1.5681106881    0.0472252242   -3.3389114705
H        1.5094001963    0.9668309187   -1.8277991805
19   

C        0.4518254305   -0.8326955226    0.6055454010
C        2.7928953793   -1.3347352902    0.5125246930
C        0.5247581996   -0.9134196993    2.0071801301
C        2.8017819388   -1.4028571761    1.9157291909
C        1.6020626343   -1.0457351341   -0.1658178352
C        1.5232931668   -1.0813211708   -1.6804713514
C        1.7195712770   -1.3082817041    4.1025563998
N        1.6815227311   -1.2007986285    2.6361784633
N        1.6867989800    0.0963651955   -2.3278136760
O        1.3407837421   -2.1048815722   -2.3061213418
H       -0.4983968494   -0.6358685701    0.1136993100
H        3.6983885159   -1.5376304493   -0.0554965610
H       -0.3821456634   -0.7582404867    2.5860605983
H        3.7342883696   -1.6442757833    2.4196247805
H        1.5546555395   -2.3462289256    4.4113243778
H        2.6884249491   -0.9729034572    4.4861206328
H        0.9469681616   -0.6778889673    4.5539040543
H        1.6432973649    0.0604190016   -3.3421723818
H        1.8565313356    0.9642944704   -1.8347198392
19   

C        0.3931385634   -0.8818916160    0.6274668863
C        2.7578314599   -1.2604584550    0.4993851759
C        0.4893426669   -0.9623450111    2.0271301047
C        2.7881714115   -1.3317563978    1.9027310599
C        1.5418869119   -1.0388317979   -0.1599579249
C        1.4265773757   -1.0511547745   -1.6722924499
C        1.7307682363   -1.3004722536    4.1043622576
N        1.6681001102   -1.1916753898    2.6389139918
N        1.8338877066    0.0633290987   -2.3254812437
O        0.9132417735   -1.9647201664   -2.2844108528
H       -0.5711568276   -0.7309596827    0.1461485916
H        3.6668638619   -1.4087474277   -0.0793043320
H       -0.4166425904   -0.8544338703    2.6180734406
H        3.7384715491   -1.5231920715    2.3947050170
H        1.6000192814   -2.3432112433    4.4133482419
H        2.6951491709   -0.9385715365    4.4747672670
H        0.9472808788   -0.6927632643    4.5679756959
H        1.7045052325    0.0639190700   -3.3331553973
H        2.1989841471    0.8719388489   -1.8376933607
19   

C        0.3518106705   -0.9386928560    0.6377288666
C        2.7327552620   -1.2001691096    0.4873491764
C        0.4628039171   -1.0275132660    2.0353586644
C        2.7764793541   -1.2831878847    1.8901315605
C        1.5007851523   -1.0331784360   -0.1593680248
C        1.3553691648   -1.0125911170   -1.6685540578
C        1.7354851592   -1.3185478240    4.1001326283
N        1.6563074023   -1.2044940434    2.6358755442
N        1.9901232788   -0.0074403715   -2.3222986621
O        0.6070841236   -1.7565822329   -2.2690012615
H       -0.6214778956   -0.8269259370    0.1628991738
H        3.6446238743   -1.2959885258   -0.0975541515
H       -0.4429160277   -0.9674691308    2.6334809607
H        3.7384061565   -1.4310625245    2.3744702442
H        1.6406468405   -2.3663258040    4.4050372753
H        2.6910855004   -0.9280143438    4.4641356106
H        0.9374160944   -0.7378102600    4.5734406013
H        1.8200769067    0.0492774932   -3.3223820876
H        2.5100391198    0.7105598443   -1.8337142622
19   

C        0.3184063248   -0.9777770014    0.6439296675
C        2.7087688866   -1.1328382694    0.4788256574
C        0.4397165717   -1.0876620253    2.0389028320
C        2.7617197841   -1.2399560923    1.8799558738
C        1.4666209824   -1.0034574849   -0.1592368842
C        1.2932275498   -0.9452966304   -1.6647278276
C        1.7332963560   -1.3522867809    4.0936837989
N        1.6425912573   -1.2222677190    2.6314152016
N        2.1196299037   -0.0970819657   -2.3325405549
O        0.3971141136   -1.5179477229   -2.2516551397
H       -0.6613801104   -0.8960625165    0.1755155214
H        3.6228608530   -1.1802002872   -0.1079805188
H       -0.4651706319   -1.0765605455    2.6411964268
H        3.7309490344   -1.3545436910    2.3587067458
H        1.6686791658   -2.4057873129    4.3863485358
H        2.6799846055   -0.9403515806    4.4574018124
H        0.9227609952   -0.7986318840    4.5782352540
H        1.9416374467   -0.0026062253   -3.3284790847
H        2.7598122842    0.5222337296   -1.8526047272
19   

C        0.2906643052   -1.0117295798    0.6577485480
C        2.6853310536   -1.0602836989    0.4798932769
C        0.4232131174   -1.1461447891    2.0492943218
C        2.7485089486   -1.1948403663    1.8784728056
C        1.4345688903   -0.9654566919   -0.1504500218
C        1.2291305677   -0.8766067200   -1.6517648908
C        1.7359820221   -1.3906468880    4.0939050557
N        1.6332648087   -1.2399103396    2.6344173621
N        2.1941727446   -0.2254026256   -2.3577727673
O        0.2351233316   -1.2921981107   -2.2139709411
H       -0.6956199333   -0.9590577726    0.1982840187
H        3.6009083056   -1.0593090794   -0.1054933465
H       -0.4787225828   -1.1856994169    2.6548224531
H        3.7235489436   -1.2777794772    2.3519016587
H        1.7146932434   -2.4504911892    4.3693599672
H        2.6670500443   -0.9470356096    4.4607004365
H        0.9063845512   -0.8775467409    4.5907588168
H        2.0119457696   -0.1232375753   -3.3522704511
H        2.9406571081    0.2877728274   -1.9083969930
19   

C        0.2747098674   -1.0570422231    0.6535228051
C        2.6698686449   -0.9836283214    0.4862576220
C        0.4085311149   -1.2197079584    2.0417057351
C        2.7333779735   -1.1497922044    1.8816364036
C        1.4172333481   -0.9317593144   -0.1484124152
C        1.1919696050   -0.8068594927   -1.6473013411
C        1.7223741810   -1.4427534146    4.0873747777
N        1.6189922738   -1.2677322932    2.6306347239
N        2.2464915644   -0.3744029988   -2.3936322456
O        0.1318527649   -1.0586333282   -2.1865513991
H       -0.7138462503   -1.0366093317    0.1960846589
H        3.5903484425   -0.9202083220   -0.0863589306
H       -0.4928944826   -1.3164731190    2.6415466578
H        3.7091097854   -1.1944876719    2.3587434005
H        1.7219132120   -2.5074872549    4.3439820836
H        2.6439263198   -0.9876642699    4.4639941749
H        0.8822093740   -0.9543934511    4.5914561402
H        2.0601970460   -0.2728289422   -3.3874798689
H        3.0955731747   -0.0113881619   -1.9836300760
19   

C        0.2849806638   -1.1327645467    0.6470202411
C        2.6717087917   -0.8957626659    0.4869007406
C        0.4307308929   -1.3424774861    2.0274708893
C        2.7459148125   -1.1125566102    1.8750670501
C        1.4177264141   -0.9065802578   -0.1474163771
C        1.1587426288   -0.6842814193   -1.6329146483
C        1.7550126840   -1.5422287860    4.0680798832
N        1.6420388275   -1.3343153638    2.6163370835
N        2.2353888489   -0.4622999018   -2.4305900043
O        0.0461927129   -0.6904648367   -2.1238586006
H       -0.7064594134   -1.1455753853    0.1955196385
H        3.5848721471   -0.7208140319   -0.0728955363
H       -0.4625816868   -1.5155818996    2.6222782132
H        3.7214274574   -1.1005189960    2.3545157084
H        1.8058334171   -2.6118238266    4.2975607808
H        2.6537216601   -1.0529724173    4.4569175297
H        0.8930132025   -1.1069748811    4.5840057715
H        2.0243753210   -0.3197468693   -3.4143805044
H        3.1880471857   -0.4644457445   -2.0961847391
