20

C     -2.67825   -2.78399    1.04929
C     -3.29932   -4.06465    1.18416
C     -1.65042   -2.93536    0.15050
C     -2.59344   -4.89146    0.35428
C      1.29967   -2.94999   -1.30670
C     -0.63310   -1.89819   -1.96541
C     -0.64907   -1.97614   -0.41161
N      0.73782   -2.35641   -0.18130
N     -2.75233   -6.28840    0.07795
O     -3.67969   -6.85356    0.67666
O      2.33492   -3.56503   -1.37388
O     -1.97229   -6.81504   -0.71920
O     -1.59112   -4.23208   -0.28228
O      0.48244   -2.69815   -2.37948
H     -2.95469   -1.86718    1.55346
H     -4.14018   -4.34981    1.79985
H     -1.53806   -2.30075   -2.42147
H     -0.47348   -0.86836   -2.29738
H     -0.87028   -0.99445    0.01737
H      1.03948   -2.71893    0.71478
