28

C      3.70599    0.05118   -1.10684
C      2.97798    1.48826    3.40026
C      2.88191    1.91168    2.05961
C      4.04027   -1.29743   -1.00933
C      0.43509    2.03442    2.20848
C      1.80817   -1.77203   -0.16005
C      2.44770    0.52351   -0.70676
C      1.79773    1.35930    4.10647
C      0.55829    1.63250    3.52381
C      1.63525    2.16000    1.48791
C      1.51707   -0.41690   -0.25990
C      3.08471   -2.19800   -0.52856
C      2.15255    1.98548   -0.85830
C      0.22624    1.18266    5.69060
O      2.44204    2.60398   -1.85645
O      1.61411    0.94077    5.40815
O     -0.44504    1.39734    4.43623
O      1.53251    2.63274    0.17615
F      0.26640   -0.01691    0.05972
Cl     3.48393   -3.89623   -0.40224
H      4.42758    0.76412   -1.49370
H      3.93903    1.28087    3.85898
H      3.78311    2.05520    1.47307
H      5.02224   -1.64984   -1.30603
H     -0.52180    2.22936    1.73848
H      1.04961   -2.46541    0.18629
H     -0.20137    0.30714    6.18308
H      0.13215    2.08491    6.30977
