20

C      1.89891   -0.67174   -0.03312
C      0.74441   -0.18903    0.57145
C      1.54907   -1.06432    2.69051
C      2.88492   -1.38779    0.67578
C      2.71959   -1.53541    2.07192
C      0.57659   -0.41570    1.94184
C      3.96665   -1.97238   -0.14422
C      5.02144   -1.88870    2.70675
N      4.41477   -3.17700   -0.16781
O      3.79624   -3.99984    0.78786
O      3.62093   -2.09104    2.92797
Cl    -0.87312    0.16919    2.73989
H      2.03039   -0.53089   -1.10333
H     -0.01160    0.33822   -0.00019
H      1.44235   -1.19534    3.76190
H      4.40885   -1.34671   -0.91895
H      5.48579   -1.93226    3.69425
H      5.20799   -0.90625    2.25979
H      5.43944   -2.67078    2.07055
H      4.20117   -4.86528    0.61368
