25

C      0.88155   -4.91885   -0.35199
C      1.78660   -5.04607    0.70459
C     -0.06635   -4.93613    2.28414
C     -0.49089   -4.80476   -0.12037
C      1.29281   -5.04456    2.00441
C     -0.93796   -4.82714    1.20692
C     -1.72495   -0.12328   -1.71882
C     -0.31252   -0.50305   -1.26645
C     -1.35347   -2.40638   -1.89779
C     -2.15584   -3.56233   -1.31866
O     -2.24710   -1.34936   -2.25679
O     -0.45823   -1.88639   -0.93252
O     -1.36010   -4.75088   -1.18572
F      2.15993   -5.15702    3.04359
F     -2.26858   -4.74167    1.45706
H      1.22851   -4.90283   -1.38036
H      2.85390   -5.13548    0.53071
H     -0.43895   -4.94885    3.30281
H     -2.34897    0.19973   -0.87760
H     -1.73674    0.64395   -2.49841
H      0.41946   -0.37863   -2.07671
H      0.03076    0.02801   -0.37710
H     -0.79887   -2.72778   -2.79425
H     -2.95235   -3.81890   -2.01945
H     -2.59751   -3.25984   -0.36612
