16

C     -0.80664   -1.26398    0.57356
C      2.40005   -6.92762    2.95656
C     -0.16586   -0.84664    1.71693
C      3.40810   -6.01131    2.76626
C     -0.10496   -3.24382    1.26436
C      1.19562   -5.35606    1.97216
C      0.00485   -4.73774    1.30477
N     -0.77600   -2.60935    0.33570
N      1.16770   -6.55517    2.49805
O     -0.85775   -5.43656    0.80453
S      0.52945   -2.19388    2.53152
S      2.79012   -4.60269    1.99422
H     -1.31848   -0.60939   -0.12379
H      2.52389   -7.89533    3.43087
H     -0.07513    0.15832    2.10895
H      4.45396   -6.09632    3.03233
