18   
Generated by ForceBalance from scan.xyz: Frame 1 of 24
C       -0.6686128905   -1.1615417740    3.1698017425
C        0.0562656865    1.0735071580    1.9043487778
C       -0.2345306855   -0.0892135377    1.1740656367
C       -0.0392058085    1.0052920093    3.3068796573
C       -1.1305240430    0.6077851427   -1.1938409336
C        0.3547063324    0.5632514108   -1.3970552364
C       -0.2636163331   -0.2857349791   -0.2991864362
N       -0.6110892233   -1.2101933707    1.8460709857
N       -0.3967769199   -0.1064198601    3.9481114164
O        0.2353048661    2.0921330413    4.0527710221
Br       0.5428285072    2.7666749949    1.1518676829
H       -0.9711064448   -2.0731016244    3.6818136112
H       -1.5445088781    1.5018373096   -0.7392176385
H       -1.7836743551    0.1053179284   -1.9002762316
H        0.7380372986    0.0011935058   -2.2438495001
H        0.9374531266    1.4340713951   -1.1328668101
H       -0.3379116514   -1.3442401438   -0.5210402263
H        0.1071394509    1.8188481735    4.9808134026
18   
Generated by ForceBalance from scan.xyz: Frame 2 of 24
C       -0.5596061010   -1.2109709593    3.1819151385
C       -0.0516188933    1.0624706478    1.8779914927
C       -0.3222062443   -0.1165116465    1.1649482028
C       -0.0542071191    0.9906083371    3.2828655045
C       -1.0960854843    0.6477638035   -1.2633830095
C        0.3852932921    0.4337865856   -1.3748660034
C       -0.3986279757   -0.3159155416   -0.3051905526
N       -0.5820499898   -1.2582978143    1.8564267944
N       -0.3049893542   -0.1397002726    3.9430264488
O        0.2032304639    2.0920640842    4.0132827972
Br       0.3076238248    2.7753796285    1.0965839479
H       -0.7710447405   -2.1389925854    3.7098505199
H       -1.4394895696    1.5954483928   -0.8654121763
H       -1.7523382871    0.1945600787   -2.0000076860
H        0.7631192512   -0.1780719129   -2.1884970673
H        1.0414436462    1.2375139537   -1.0676147404
H       -0.5701603405   -1.3649213864   -0.5172906791
H        0.1487019015    1.8125329169    4.9467081248
18   
Generated by ForceBalance from scan.xyz: Frame 3 of 24
C       -0.4303459879   -1.1724141970    3.1943536291
C       -0.1234466646    1.1703378123    1.9545038722
C       -0.3815147514    0.0064075715    1.2131615986
C       -0.0430658477    1.0498606933    3.3536826007
C       -1.0103958791    0.8793778929   -1.2597986926
C        0.4442357623    0.4987479202   -1.2725065660
C       -0.4974415462   -0.1468121205   -0.2601789898
N       -0.5278226667   -1.1741590312    1.8712942815
N       -0.1968495259   -0.1154495089    3.9818947164
O        0.1980795079    2.1371933519    4.1103090935
Br       0.1482025648    2.9164684034    1.2135794844
H       -0.5516344199   -2.1304768151    3.6963442560
H       -1.2729253514    1.8664233078   -0.9022183735
H       -1.6582390486    0.4877312382   -2.0382103177
H        0.8142560378   -0.1496020368   -2.0607042667
H        1.1566018750    1.2289686977   -0.9068282883
H       -0.7639226478   -1.1722016372   -0.4901204300
H        0.2108691180    1.8228200967    5.0340965363
18   
Generated by ForceBalance from scan.xyz: Frame 4 of 24
C       -0.3356898436   -1.2206724935    3.1958480779
C       -0.2678397000    1.1602164396    1.9932542498
C       -0.4851715191   -0.0048314125    1.2426117169
C       -0.1055711025    1.0208854161    3.3842431492
C       -0.9714538337    0.8869670637   -1.2861359113
C        0.4310436072    0.3444880039   -1.2058085837
C       -0.6363813756   -0.1480089177   -0.2294945133
N       -0.5020763006   -1.2054237026    1.8802707956
N       -0.1420226294   -0.1630966748    3.9940741431
O        0.0968573089    2.1095362917    4.1500978222
Br      -0.1367273509    2.9302903426    1.2749208514
H       -0.3552971532   -2.1943200040    3.6818343285
H       -1.1377229457    1.9139136467   -0.9937829705
H       -1.6139061607    0.5318711354   -2.0866074915
H        0.7756973440   -0.3641273181   -1.9521912047
H        1.1944334690    1.0066618263   -0.8100916476
H       -0.9967774826   -1.1472393791   -0.4486358902
H        0.1810287423    1.7811296434    5.0652073866
18   
Generated by ForceBalance from scan.xyz: Frame 5 of 24
C       -0.1977891855   -1.2082511377    3.1363184118
C       -0.3785459891    1.1978122429    1.9931131976
C       -0.5305065096    0.0361236223    1.2239892744
C       -0.1273781269    1.0396395549    3.3707797063
C       -0.8679616612    0.9449308210   -1.3330237293
C        0.4311431824    0.1941679109   -1.2001744361
C       -0.7280637039   -0.0978322752   -0.2453382843
N       -0.4300115586   -1.1763591798    1.8323873522
N       -0.0363227252   -0.1556318712    3.9498971295
O        0.0278069866    2.1239694726    4.1534152804
Br      -0.4820661550    2.9905073143    1.3313863498
H       -0.1268292698   -2.1905632548    3.5995949309
H       -0.8762117687    1.9939858687   -1.0771916111
H       -1.5340683694    0.6718678847   -2.1464410956
H        0.6886239093   -0.5764670772   -1.9197557132
H        1.2749563910    0.7393389841   -0.7876161458
H       -1.2225037053   -1.0413529400   -0.4517737669
H        0.1858458723    1.7832710852    5.0542164756
18   
Generated by ForceBalance from scan.xyz: Frame 6 of 24
C       -0.0516696096   -1.1849782719    3.0945493546
C       -0.5259248687    1.2083601323    2.0051988595
C       -0.5522469317    0.0516830136    1.2166537911
C       -0.1956541892    1.0562101717    3.3689181621
C       -0.7296439746    0.9968359514   -1.3154827659
C        0.3916521264   -0.0012525937   -1.2040149806
C       -0.7994104692   -0.0717057060   -0.2484584495
N       -0.3280952593   -1.1563356037    1.7999427378
N        0.0476720372   -0.1308424529    3.9178807991
O       -0.1275776954    2.1380564978    4.1666642744
Br      -0.9716859413    2.9714777813    1.4099797496
H        0.1164480342   -2.1627385566    3.5421420517
H       -0.5181743571    2.0184113085   -1.0334057969
H       -1.4320478593    0.8933234902   -2.1375366025
H        0.4875688708   -0.7939172150   -1.9394497232
H        1.3310986575    0.3508073139   -0.7882295571
H       -1.4681613796   -0.9029870719   -0.4511728758
H        0.1018591323    1.8026735504    5.0540502770
18   
Generated by ForceBalance from scan.xyz: Frame 7 of 24
C       -1.8695028533    1.3223584685    2.8630638393
C        0.4192568087    0.2651711768    1.9835391527
C       -0.5303346329    0.7588253926    1.0820700886
C        0.0872485765    0.2926824223    3.3545707078
C        0.2640057015   -0.2695226945   -1.2388432305
C       -1.2380801784   -0.1548309830   -1.2436683140
C       -0.4020174338    0.8010622105   -0.4049501433
N       -1.6727055201    1.3219886214    1.5521444683
N       -1.0554663393    0.8098582277    3.7980933935
O        0.9449186393   -0.2050905263    4.2640878556
Br       2.1644499573   -0.3446544777    1.4989724829
H       -2.7864091112    1.7837238490    3.2248981542
H        0.6935220986   -1.1262601781   -0.7347967827
H        0.8172597999    0.0570252724   -2.1143959146
H       -1.7402720725    0.2543992022   -2.1149255731
H       -1.8034864880   -0.9131987327   -0.7105731658
H       -0.3550259976    1.8189774091   -0.7839996337
H        0.5222256198   -0.0722346767    5.1337134398
18   
Generated by ForceBalance from scan.xyz: Frame 8 of 24
C       -1.9265339096    1.1555345832    2.8584880035
C        0.4647541718    0.3645769228    1.9794358084
C       -0.5364732501    0.7470675983    1.0801307713
C        0.1441779144    0.3712473576    3.3509331240
C        0.1761903447   -0.3920432729   -1.1700238675
C       -1.2719342558    0.0114725891   -1.3005618531
C       -0.3470909356    0.8024378326   -0.4008388349
N       -1.7364593046    1.1713888160    1.5441222667
N       -1.0506815262    0.7587316119    3.7927925217
O        1.0574808315   -0.0141537808    4.2606707057
Br       2.2409313112   -0.0874009953    1.4490319909
H       -2.8928066189    1.5004760018    3.2214529156
H        0.3953409293   -1.2960841267   -0.6116890772
H        0.8535937066   -0.2017960450   -1.9968642635
H       -1.6054087634    0.4844825201   -2.2192808545
H       -2.0200439994   -0.6078403570   -0.8152679248
H       -0.0448201595    1.7846027379   -0.7584631286
H        0.6267159207    0.0769296779    5.1316788918
18   
Generated by ForceBalance from scan.xyz: Frame 9 of 24
C       -1.9706474696    0.9712993722    2.8499205273
C        0.4954604504    0.4313347286    1.9950300408
C       -0.5304738382    0.7150987563    1.0867305081
C        0.1721494274    0.4249323749    3.3631048194
C        0.0598325458   -0.4984853214   -1.1328047429
C       -1.2841660975    0.1587695098   -1.3368348832
C       -0.2911311769    0.7765139118   -0.3853099083
N       -1.7739781761    1.0024587586    1.5347198022
N       -1.0613707852    0.6906993944    3.7928930547
O        1.1143900766    0.1475612763    4.2826609523
Br       2.2885201565    0.0934681684    1.4442746526
H       -2.9740335051    1.2008857612    3.2032308643
H        0.0911668358   -1.4201122721   -0.5593130798
H        0.8058949354   -0.4316154782   -1.9185005054
H       -1.4733096633    0.6746624737   -2.2734125077
H       -2.1573890428   -0.3101815225   -0.8945698449
H        0.2287126648    1.6760767057   -0.7081556365
H        0.6706128779    0.2005997663    5.1502395105
18   
Generated by ForceBalance from scan.xyz: Frame 10 of 24
C       -1.9719386404    0.8160282198    2.8123948664
C        0.5451708986    0.5325179272    1.9883800322
C       -0.4945297180    0.7027323713    1.0664105346
C        0.2131281164    0.5176750310    3.3522813294
C       -0.0710123095   -0.5628771345   -1.1456023542
C       -1.2806030006    0.3081108687   -1.3794384367
C       -0.2303488113    0.7570495381   -0.3982334478
N       -1.7665649620    0.8536159690    1.4979524360
N       -1.0469644017    0.6578874305    3.7674869018
O        1.1702046132    0.3566756857    4.2843438728
Br       2.3592024554    0.3251141142    1.4427619102
H       -2.9990410290    0.9324188224    3.1527789545
H       -0.2050516795   -1.4759031756   -0.5728780401
H        0.7005610311   -0.6141234131   -1.9074692499
H       -1.3518951707    0.8487564202   -2.3184402421
H       -2.2300622749   -0.0097259610   -0.9618488637
H        0.4522584930    1.5473043985   -0.6997851730
H        0.7144600873    0.3759541595    5.1470836100
18   
Generated by ForceBalance from scan.xyz: Frame 11 of 24
C       -1.9323570316    0.6365874424    2.7964789209
C        0.6124784452    0.5969658278    2.0097367480
C       -0.4252953532    0.6550456283    1.0705531333
C        0.2627921981    0.5722271365    3.3684768179
C       -0.2096638010   -0.6230441361   -1.1542081216
C       -1.2521228373    0.4377077448   -1.3849532759
C       -0.1519174191    0.7020208452   -0.3884487852
N       -1.7120517510    0.6790934844    1.4852908338
N       -1.0109455617    0.5915556757    3.7664434018
O        1.2170995063    0.5236165986    4.3160312191
Br       2.4481802976    0.5334351074    1.4968804663
H       -2.9712391436    0.6481345185    3.1206411251
H       -0.4989263745   -1.5044689915   -0.5897639564
H        0.5535254657   -0.7920560519   -1.9075489439
H       -1.2181653376    0.9966825747   -2.3152744566
H       -2.2436845609    0.2751477084   -0.9774545791
H        0.6555572313    1.3663818832   -0.6787364011
H        0.7482342907    0.5117828144    5.1718274767
18   
Generated by ForceBalance from scan.xyz: Frame 12 of 24
C       -2.1293231828    0.4722129322    2.8331410073
C        0.4552243661    0.6998305710    2.2263147334
C       -0.5122415738    0.6306955540    1.2149842483
C        0.0123221881    0.6560195839    3.5573510591
C       -0.3791011381   -0.6154778205   -1.0279629627
C       -1.2330870548    0.5918886550   -1.2818392745
C       -0.1567504931    0.6722840454   -0.2224086851
N       -1.8210679969    0.5193516331    1.5413483050
N       -1.2808605510    0.5421605535    3.8665228589
O        0.8964745329    0.7251908178    4.5696237861
Br       2.3233850731    0.8295243077    1.8577685491
H       -3.1840311427    0.3745854855    3.0832820968
H       -0.8286013489   -1.4482013259   -0.4959448908
H        0.3901192541   -0.8851240249   -1.7450669717
H       -1.0609398340    1.1607430395   -2.1905830089
H       -2.2571958256    0.5694613294   -0.9272859007
H        0.7496701119    1.2167433543   -0.4591475362
H        0.3715781091    0.6746673580    5.3907411012
18   
Generated by ForceBalance from scan.xyz: Frame 13 of 24
C       -1.9383660904    0.3052097934    2.7439533517
C        0.6069982300    0.7086615192    2.0613372153
C       -0.3745603020    0.5230666673    1.0788805747
C        0.1978823577    0.6816669886    3.4043117266
C       -0.5464430295   -0.6791693313   -1.1885782260
C       -1.1987656029    0.6552141024   -1.3784302116
C       -0.0724704832    0.5276693959   -0.3681309972
N       -1.6633883483    0.3217429974    1.4453582590
N       -1.0742266059    0.4806576658    3.7522382326
O        1.0971656086    0.8591075616    4.3897200318
Br       2.4519430318    0.9801548159    1.6489806843
H       -2.9765356762    0.1380414879    3.0247731073
H       -1.1041102947   -1.4364882629   -0.6470372382
H        0.1355592456   -1.0515079101   -1.9467654788
H       -0.9742390404    1.2190820203   -2.2787652971
H       -2.1945940171    0.7881325960   -0.9710540140
H        0.8924615879    0.9341623283   -0.6425030645
H        0.5966008386    0.8009146971    5.2254294291
18   
Generated by ForceBalance from scan.xyz: Frame 14 of 24
C       -1.8272513561    0.1610757266    2.7251298431
C        0.6790062443    0.7248456516    2.0106007406
C       -0.2874684360    0.4205714642    1.0433130381
C        0.2768226912    0.7223267161    3.3565143115
C       -0.6710752569   -0.6909355502   -1.2556511038
C       -1.1129671831    0.7326920606   -1.3890511591
C       -0.0001176943    0.3875197409   -0.4050846866
N       -1.5565988951    0.1372013507    1.4265081963
N       -0.9752368565    0.4415190469    3.7204218783
O        1.1632067395    1.0081953125    4.3280184381
Br       2.4944952815    1.1331300862    1.5780877729
H       -2.8497407289   -0.0688092981    3.0188722704
H       -1.3325411675   -1.3700337390   -0.7282517946
H       -0.0668230216   -1.1330891385   -2.0418264646
H       -0.8192740010    1.2933485250   -2.2711879428
H       -2.0691841853    1.0001492661   -0.9526939375
H        1.0057414711    0.6677591005   -0.6888357917
H        0.6707438545    0.9477478418    5.1683888317
18   
Generated by ForceBalance from scan.xyz: Frame 15 of 24
C       -1.7671712401    0.0267006098    2.7367426589
C        0.6915262440    0.7476784696    1.9975789488
C       -0.2452686340    0.3260411318    1.0451223366
C        0.2874437128    0.7700502369    3.3425668144
C       -0.7683617231   -0.6647369177   -1.2933335546
C       -0.9923965744    0.8147751075   -1.3748762060
C        0.0481871910    0.2572259122   -0.4011456094
N       -1.4896653866   -0.0376738940    1.4406621835
N       -0.9407739134    0.4107664547    3.7187733808
O        1.1468583241    1.1633015415    4.3006556744
Br       2.4664047936    1.2898297414    1.5447964382
H       -2.7710745937   -0.2644326203    3.0401200182
H       -1.5303091330   -1.2571447959   -0.7989960125
H       -0.2302931578   -1.1570748851   -2.0976444515
H       -0.6119374094    1.3627705571   -2.2313230920
H       -1.9010363520    1.2063490639   -0.9295048722
H        1.0840858878    0.4121177611   -0.6734064245
H        0.6583175826    1.1008624339    5.1431587942
18   
Generated by ForceBalance from scan.xyz: Frame 16 of 24
C       -1.7249607382   -0.1181873014    2.7668584183
C        0.6672843705    0.7713755078    1.9930932212
C       -0.2313746262    0.2354049335    1.0612542921
C        0.2639331778    0.8103218820    3.3372105272
C       -0.8388294936   -0.6120578871   -1.3212818949
C       -0.8375738307    0.8901274305   -1.3553826905
C        0.0784813571    0.1408046227   -0.3822764117
N       -1.4409684024   -0.2138012613    1.4729412767
N       -0.9313890651    0.3668295499    3.7304227309
O        1.0882754879    1.3082277757    4.2772163507
Br       2.3838506045    1.4515033163    1.5064155320
H       -2.7026023496   -0.4762660999    3.0839835526
H       -1.6940748251   -1.1012467963   -0.8690921579
H       -0.3618719763   -1.1482627545   -2.1360729307
H       -0.3575447584    1.4043738972   -2.1821658455
H       -1.6899981778    1.4012014176   -0.9191226470
H        1.1330218061    0.1632389334   -0.6283033670
H        0.6066685633    1.2383439255    5.1230860152
18   
Generated by ForceBalance from scan.xyz: Frame 17 of 24
C       -1.5947128685   -0.2240282154    2.7860265957
C        0.6800442091    0.8435363590    1.9011833838
C       -0.1932862861    0.1915004408    1.0208687259
C        0.3192517274    0.8999575335    3.2562334708
C       -0.9028013149   -0.5280275588   -1.3793465557
C       -0.6758797978    0.9623919580   -1.3938509427
C        0.1021764586    0.0675619644   -0.4268272519
N       -1.3431675126   -0.3481857710    1.4864901447
N       -0.8191778496    0.3663698062    3.7038035297
O        1.1232594800    1.5062979383    4.1490253339
Br       2.3037316615    1.6587547422    1.3188761081
H       -2.5258482462   -0.6547198511    3.1492871536
H       -1.8252503844   -0.8940277084   -0.9430128242
H       -0.5068632252   -1.1154392176   -2.2021961051
H       -0.1174032092    1.4088786858   -2.2106378012
H       -1.4481971348    1.5926515019   -0.9635963066
H        1.1537569506   -0.0527723457   -0.6637112298
H        0.6764389685    1.4267322287    5.0129310650
18   
Generated by ForceBalance from scan.xyz: Frame 18 of 24
C       -1.5193059610   -0.3645884430    2.8473754664
C        0.6298495534    0.8813716255    1.8855619147
C       -0.1995085663    0.1313035513    1.0424573695
C        0.2928037731    0.9429660555    3.2464284718
C       -0.9696990880   -0.4347027180   -1.3812621817
C       -0.5104438696    1.0060516641   -1.3731241485
C        0.0941225539   -0.0086853398   -0.4079723896
N       -1.2846078068   -0.4994997590    1.5444972627
N       -0.7834173538    0.3204682894    3.7312529725
O        1.0551424248    1.6441038896    4.1055586875
Br       2.1639467418    1.8085187919    1.2364395710
H       -2.3985094372   -0.8694560253    3.2429880964
H       -1.9460918841   -0.6584178934   -0.9655691896
H       -0.6631021788   -1.0673601692   -2.2086784863
H        0.1251655003    1.3655658182   -2.1762267068
H       -1.1837425695    1.7481145973   -0.9544774704
H        1.1214386930   -0.2867042674   -0.6259745384
H        0.6339884319    1.5493919965    4.9807925054
18   
Generated by ForceBalance from scan.xyz: Frame 19 of 24
C       -1.4601388129   -0.5096075371    2.8761681722
C        0.5410462126    0.9029546227    1.8277232179
C       -0.2425832460    0.0666560081    1.0242742445
C        0.2312194504    0.9710208558    3.1957248325
C       -1.0827945636   -0.3506629438   -1.4070018378
C       -0.3934907254    0.9992181051   -1.3959276767
C        0.0310508416   -0.0947655781   -0.4314521424
N       -1.2491744536   -0.6520693993    1.5698937528
N       -0.7713504037    0.2665576523    3.7225293257
O        0.9471942327    1.7605029061    4.0169466018
Br       1.9913063228    1.9195422273    1.1246648153
H       -2.2746684458   -1.0873948210    3.3086389856
H       -2.0852896397   -0.4146272137   -0.9968154087
H       -0.8836077211   -1.0253699848   -2.2339956899
H        0.2912461036    1.2501760904   -2.1998397382
H       -0.9404756586    1.8426337959   -0.9848669783
H        0.9996821034   -0.5429041689   -0.6424540204
H        0.5583756957    1.6512807256    4.9053716910
18   
Generated by ForceBalance from scan.xyz: Frame 20 of 24
C       -1.3706742813   -0.6488187232    2.9193367649
C        0.4605566393    0.9386615922    1.8097502556
C       -0.2602475182    0.0255327320    1.0324656928
C        0.1655764617    1.0010050565    3.1834703474
C       -1.1587767448   -0.2341626746   -1.4015986126
C       -0.2546127674    0.9840773510   -1.3993005503
C       -0.0134012594   -0.1516794799   -0.4289352443
N       -1.1750440850   -0.7860495913    1.6112398759
N       -0.7526020118    0.2114814393    3.7398772506
O        0.8153762314    1.8704651088    3.9785256581
Br       1.8330193695    2.0484520359    1.0897958452
H       -2.1085601189   -1.3040776204    3.3780923080
H       -2.1588993298   -0.1264039914   -0.9936377696
H       -1.0772456348   -0.9422920587   -2.2205411636
H        0.4568763932    1.1152847984   -2.2084654079
H       -0.6596882834    1.9089842360   -1.0001620616
H        0.8566286213   -0.7716860924   -0.6389092277
H        0.4555368768    1.7381256935    4.8759981394
18   
Generated by ForceBalance from scan.xyz: Frame 21 of 24
C       -1.2748195987   -0.7390125877    2.9559060548
C        0.3652527718    1.0177210964    1.7954830457
C       -0.2740825810    0.0294218284    1.0394980053
C        0.0709099773    1.0733790390    3.1722951716
C       -1.2300228130   -0.0921934762   -1.3871248278
C       -0.1292329028    0.9491439854   -1.4297364142
C       -0.0681763706   -0.1757008401   -0.4255597830
N       -1.0833680327   -0.8708674091    1.6487330559
N       -0.7524495400    0.2035888755    3.7537108581
O        0.6327298691    2.0206764665    3.9450959648
Br       1.6610361936    2.2257958383    1.0849799853
H       -1.9237726164   -1.4690605678    3.4358134111
H       -2.1909549992    0.2055704846   -0.9787478401
H       -1.2843895531   -0.8361944885   -2.1758837366
H        0.5815275969    0.9324603945   -2.2501414675
H       -0.3731240309    1.9421108485   -1.0681303387
H        0.6548733283   -0.9635361604   -0.6299968710
H        0.2982474222    1.8656243193    4.8487713213
18   
Generated by ForceBalance from scan.xyz: Frame 22 of 24
C       -1.0996664092   -0.8834017548    2.9713740626
C        0.3434721375    1.0315888094    1.7946790036
C       -0.2139921460   -0.0061077821    1.0395950352
C        0.0612383310    1.0505657634    3.1771780836
C       -1.2443535559    0.0839896187   -1.3569426938
C        0.0448489096    0.8648910270   -1.4780300385
C       -0.0771407295   -0.2151765447   -0.4320302418
N       -0.9190767515   -0.9854951220    1.6624326547
N       -0.6640419601    0.1044278209    3.7676774002
O        0.5405528344    2.0446293141    3.9470657838
Br       1.5339041605    2.3623226523    1.1121597119
H       -1.6605593257   -1.6800230802    3.4564693008
H       -2.0993033843    0.5954580967   -0.9249549978
H       -1.4927708566   -0.6619716609   -2.1054392710
H        0.7007157043    0.6652445678   -2.3201555852
H        0.0232341406    1.9005194466   -1.1638671047
H        0.4310644462   -1.1521195182   -0.6481740533
H        0.2369121460    1.8523719386    4.8544999269
18   
Generated by ForceBalance from scan.xyz: Frame 23 of 24
C       -0.9018495424   -1.0853912034    3.0977216913
C        0.3146225505    0.9506085409    1.8669944168
C       -0.1521213903   -0.1461137285    1.1318120069
C        0.0787744947    0.9468940941    3.2582434861
C       -1.2442923671    0.1737907069   -1.2058016620
C        0.1757774649    0.6082648152   -1.4558405462
C       -0.1077439086   -0.3723272438   -0.3408152509
N       -0.7521987631   -1.1771221895    1.7852399041
N       -0.5305902889   -0.0601833214    3.8784427931
O        0.4846230907    1.9872781586    4.0095450454
Br       1.3027514182    2.4282917145    1.1580014105
H       -1.3784185750   -1.9250872667    3.6001053750
H       -1.9088592550    0.8954281118   -0.7399767376
H       -1.7283821109   -0.5183308083   -1.8876923655
H        0.6928712320    0.2020263904   -2.3203754900
H        0.4358783111    1.6292542781   -1.2165885224
H        0.1327549621   -1.4095904182   -0.5530982399
H        0.2300154721    1.7708960905    4.9265556518
18   
Generated by ForceBalance from scan.xyz: Frame 24 of 24
C       -0.7795366025   -1.1562661598    3.1424154516
C        0.1784704996    1.0011814576    1.8947000078
C       -0.1717013574   -0.1418255480    1.1619372544
C        0.0004436250    0.9603053231    3.2917476187
C       -1.1874231437    0.4077095633   -1.1676364431
C        0.2806544989    0.5571048718   -1.4373656754
C       -0.1662601637   -0.3542400639   -0.3108684207
N       -0.6601614999   -1.2249655002    1.8247174079
N       -0.4751623796   -0.1109553939    3.9234379673
O        0.3184846800    2.0332844895    4.0402511018
Br       0.8763432586    2.6257000937    1.1608436202
H       -1.1675465677   -2.0386913026    3.6477750150
H       -1.6912914811    1.2425993288   -0.6898862292
H       -1.8048071338   -0.1778077266   -1.8415185607
H        0.6935134889    0.0427619731   -2.3006048711
H        0.7500117486    1.5029821682   -1.2117296562
H       -0.1226165764   -1.4162350557   -0.5260567660
H        0.1212917870    1.7834465073    4.9628348468
