36

C     -0.76200    0.53720    5.55101
C      0.91026    2.10967    6.18414
C      0.34313    0.84404    6.34818
C     -0.65402    2.61329    4.58746
C     -4.00699    1.10353    1.15663
C     -2.87862    6.96556    3.39779
C     -3.00007    2.11944    0.59991
C     -2.34521    6.21873    4.62732
C     -1.83973    2.43709    1.55414
C     -0.85483    5.85903    4.54816
C     -2.28678    3.14582    2.83927
C     -0.49678    4.80303    3.49171
N     -1.26174    1.40146    4.67192
N      0.42471    2.99583    5.31864
N     -1.16345    3.51408    3.70328
Br     1.04967   -0.41272    7.60295
H     -1.25185   -0.43284    5.62158
H      1.77711    2.41521    6.76821
H     -4.53162    1.48648    2.03778
H     -4.76506    0.85166    0.40738
H     -3.50342    0.17575    1.45093
H     -2.78894    6.37181    2.48158
H     -3.93714    7.21971    3.51802
H     -2.32773    7.89965    3.23680
H     -2.58298    1.73196   -0.33739
H     -3.52278    3.04958    0.33764
H     -2.50438    6.84250    5.51518
H     -2.92998    5.30565    4.79382
H     -1.32109    1.51223    1.83164
H     -1.10730    3.07131    1.03860
H     -0.26936    6.76268    4.32971
H     -0.51088    5.48879    5.51874
H     -2.96219    2.50895    3.40995
H     -2.82884    4.06287    2.59023
H      0.58476    4.64810    3.49518
H     -0.77353    5.14622    2.49090
