42

C     -0.59426   -1.36097   -0.69730
C     -0.28031   -2.63630    0.09530
C     -1.44925   -0.53184    0.26642
C      0.02770   -2.13012    1.50442
C     -0.11238   -3.12091    2.65377
C      0.16413   -2.48423    4.02161
C     -0.32497   -3.99015   10.55126
C     -0.17068   -2.97384    9.41187
C     -0.31916   -3.30120   11.92033
C      0.02015   -3.46865    5.18429
C     -0.16615   -3.68342    8.05518
C     -0.48310   -4.27963   13.06444
N     -0.96665   -0.95064    1.66439
O     -1.20331   -1.63954    6.65338
O      1.33704   -1.83007    6.82089
F     -0.46562   -3.64825   14.26038
F      0.50993   -5.20626   13.08190
F     -1.65716   -4.95879   12.98352
S      0.01517   -2.47176    6.71865
H      0.32630   -0.82711   -0.95020
H     -1.13299   -1.55666   -1.62601
H     -1.14261   -3.31233    0.11320
H      0.56945   -3.18831   -0.31082
H     -1.33870    0.54742    0.16585
H     -2.50714   -0.78885    0.20660
H      1.01597   -1.66179    1.52346
H     -1.11490   -3.56885    2.62798
H      0.59344   -3.93574    2.45993
H     -0.53851   -1.66156    4.20356
H      1.17072   -2.05475    4.04222
H      0.49018   -4.72057   10.51014
H     -1.26065   -4.54616   10.42842
H     -0.99184   -2.25065    9.43948
H      0.76316   -2.41526    9.52928
H      0.62031   -2.76573   12.08615
H     -1.13331   -2.57465   11.99877
H     -0.92930   -4.01045    5.15025
H      0.85302   -4.17469    5.23390
H      0.67668   -4.37509    7.96329
H     -1.10438   -4.21489    7.87034
H     -0.52705   -0.17090    2.16171
H     -1.76059   -1.23984    2.24445
