40

C      8.99013   -2.03544   -1.12997
C      7.28114   -1.73790    0.44851
C     10.10082   -1.91936   -2.13221
C      6.96524   -1.54966    8.20908
C     10.22468   -4.74986   -5.19234
C     10.20474   -2.24055   -5.55720
C      6.22048   -1.16393    6.92647
C      6.94319   -1.62883    5.65634
C      6.19545   -1.24216    4.37294
C     11.55514   -3.23307   -3.64207
C      6.94309   -1.70086    3.12399
C     11.02309   -3.44427   -5.07230
N      8.45328   -3.17156   -0.75812
N      7.45052   -2.99894    0.15852
N     10.50419   -3.11019   -2.63619
O     10.56299   -0.81568   -2.42398
O      6.14095    0.37660    1.57576
S      8.31612   -0.61601   -0.38560
S      6.02685   -1.13436    1.61821
H      7.07939   -2.63689    8.28880
H      7.96829   -1.10844    8.23174
H      6.42919   -1.20448    9.09936
H      9.30557   -4.70757   -4.59604
H      9.92834   -4.93127   -6.23061
H     10.80935   -5.61438   -4.85614
H      9.29459   -2.11895   -4.96031
H      9.90180   -2.37554   -6.60101
H     10.77560   -1.31045   -5.48039
H      6.09146   -0.07472    6.88902
H      5.20989   -1.59209    6.94530
H      7.07745   -2.71838    5.69096
H      7.95150   -1.19430    5.63343
H      6.06816   -0.15488    4.33358
H      5.19059   -1.68308    4.38610
H     12.19896   -4.07263   -3.35632
H     12.14954   -2.31836   -3.59256
H      7.01816   -2.79019    3.04722
H      7.94205   -1.25809    3.06286
H     11.91673   -3.53134   -5.70565
H     10.01584   -3.93484   -2.30490
