41

C     -0.31711   -5.09856   -4.08400
C     -0.31662   -5.07367   -2.53034
C      1.16391   -4.91084   -4.47218
C      1.16456   -4.88781   -2.13709
C      1.39278   -4.08035   -0.85894
C      0.74427   -4.67508    0.40030
C      1.38410  -10.30749    4.05757
C      0.78752   -8.91170    3.83754
C      0.86464  -10.93715    5.35491
C      1.29569   -6.05949    0.75082
C      1.31505   -8.28148    2.54850
C      1.40893  -12.32699    5.59723
N      1.72041   -4.19995   -3.31254
O     -0.88546   -6.83976    2.08730
O      1.02583   -5.76482    3.39927
F      0.94125  -12.84823    6.75884
F      2.76601  -12.33919    5.67383
F      1.06292  -13.19080    4.60621
S      0.56015   -6.64189    2.30810
H     -0.72376   -6.02889   -4.48949
H     -0.92086   -4.27688   -4.47728
H     -0.90723   -4.23002   -2.16004
H     -0.73916   -5.98279   -2.09359
H      1.63759   -5.89633   -4.62902
H      1.29518   -4.32423   -5.38665
H      1.62058   -5.89038   -2.02231
H      2.47186   -3.95940   -0.69107
H      0.98857   -3.07508   -1.02173
H     -0.33929   -4.74632    0.27001
H      0.92217   -4.00296    1.24531
H      2.47703  -10.24405    4.09698
H      1.13132  -10.95626    3.21180
H     -0.30411   -8.97572    3.78399
H      1.03355   -8.25947    4.68170
H      1.13837  -10.32820    6.22175
H     -0.22645  -11.01824    5.34050
H      1.04699   -6.80939   -0.00411
H      2.37917   -6.03695    0.90410
H      2.39806   -8.13044    2.58454
H      1.05604   -8.87979    1.66988
H      2.73835   -4.22257   -3.31049
