28   

C       -0.9706971230    0.3127319026    0.5373185998
C       -2.0218045898   -0.6079612344    0.6395836224
C       -1.7843468105    1.4760396770    2.5067839967
C       -3.9210815156    0.3917739006    3.5397769427
C       -2.8277379652    0.5496366929    2.5960793545
C       -0.8335084712    1.3666650463    1.4661481393
C       -2.9366524962   -0.4698456658    1.6756894398
C       -4.6570454247   -0.7109892841    3.1426344409
C       -5.7902527125   -1.3931287484    3.7610273493
C        1.2216053379    2.2877247757    2.5681538678
C       -0.2031560171    3.7639664743    1.0967767158
C        0.3167310199    2.3436310766    1.3340100571
N       -4.0402954231   -1.2516893256    1.9913823102
O       -6.1773432009   -2.5078616311    3.4361591648
O       -6.3463044867   -0.7266537540    4.7999989733
H       -0.2556592033    0.2038801394   -0.2699914624
H       -2.1201644648   -1.4163427026   -0.0739042951
H       -1.7130900056    2.2684909370    3.2414049542
H       -4.1178429646    1.0045256887    4.4112619737
H        0.6757393657    2.5821243516    3.4695169858
H        2.0743810160    2.9621265878    2.4423513919
H        1.6037442590    1.2712965622    2.7066713690
H       -0.8008231608    4.1101714219    1.9453357958
H       -0.8255202041    3.7891855268    0.1966000347
H        0.6343898763    4.4543288902    0.9562197695
H        0.9217353860    2.0615494705    0.4657279807
H       -4.3462314841   -2.0979745876    1.5151837603
H       -7.0527361517   -1.3084167034    5.1232962592
28   

C       -0.6898154133    0.1203705909    0.8397278102
C       -1.6930015735   -0.8467302948    0.9857292178
C       -1.8678601032    1.5883533824    2.3730085650
C       -4.0728014776    0.5522982142    3.3072384975
C       -2.8607404216    0.6133530349    2.5089561979
C       -0.7587736107    1.3501131017    1.5291214713
C       -2.7670779971   -0.5783163490    1.8247468103
C       -4.6811426212   -0.6639054536    3.0512502774
C       -5.8041141019   -1.3321243718    3.7081728754
C        1.0307057327    2.6628517106    2.6991304024
C       -0.1989674613    3.6572769196    0.7311030131
C        0.3461944108    2.3726175429    1.3601280608
N       -3.8584548061   -1.3745263160    2.1469339969
O       -5.9340257219   -2.5466154377    3.7764410529
O       -6.6243261847   -0.4973697957    4.3885109814
H        0.1500354787   -0.0902771934    0.1876869453
H       -1.6320936352   -1.7904199310    0.4585194692
H       -1.9560510421    2.5168269766    2.9233499094
H       -4.4211883190    1.2984093034    4.0111814127
H        0.3264369904    3.0964448457    3.4154010324
H        1.8574122119    3.3657273333    2.5562708256
H        1.4346725151    1.7373838632    3.1218195930
H       -0.9504933709    4.1217048634    1.3766107099
H       -0.6586455474    3.4339357284   -0.2369376558
H        0.6128989190    4.3733965909    0.5702508704
H        1.1037390527    1.9651595988    0.6821742784
H       -4.0157481544   -2.3367128713    1.8543716139
H       -7.2741691205   -1.0769755369    4.8171661627
28   

C       -0.6980495411    0.1398980140    0.8171994762
C       -1.7036680692   -0.8256805101    0.9559801404
C       -1.8740566611    1.6002730679    2.3592206199
C       -4.0776410552    0.5582784488    3.2905572827
C       -2.8695691518    0.6268265306    2.4873155114
C       -0.7643388910    1.3648107841    1.5153280945
C       -2.7777275588   -0.5601857734    1.7959880591
C       -4.6936213610   -0.6508097569    3.0216005853
C       -5.7700641126   -1.3410629969    3.7408592179
C        1.0276485014    2.6603520969    2.7005525304
C       -0.1926156011    3.6758936261    0.7374024306
C        0.3453493520    2.3839585268    1.3574095925
N       -3.8672469753   -1.3589287262    2.1176759638
O       -5.7641513957   -2.5341678982    4.0049147043
O       -6.6780635395   -0.5058484817    4.2973122438
H        0.1423068463   -0.0687724559    0.1651715981
H       -1.6437851822   -1.7665321890    0.4236206006
H       -1.9595324057    2.5243448133    2.9173375278
H       -4.4111551681    1.2897221265    4.0166591543
H        0.3234678397    3.0912380692    3.4185402026
H        1.8578314927    3.3606854436    2.5655775137
H        1.4264671096    1.7297469271    3.1168321232
H       -0.9439498240    4.1381723376    1.3846673085
H       -0.6505309008    3.4622820882   -0.2336556942
H        0.6227452762    4.3898024765    0.5846131070
H        1.1029997858    1.9786955617    0.6782558313
H       -4.0065477895   -2.3276735972    1.8392131411
H       -7.2705461476   -1.0814780819    4.8067589620
28   

C       -0.7131407914    0.1432101841    0.8039060674
C       -1.7214358435   -0.8197422690    0.9408681144
C       -1.8801493495    1.5993757280    2.3566622320
C       -4.0827710294    0.5567259811    3.2907124850
C       -2.8787049675    0.6286215491    2.4821446643
C       -0.7733303069    1.3645555221    1.5087132134
C       -2.7921966781   -0.5547868008    1.7852835941
C       -4.7088442116   -0.6439031980    3.0121550669
C       -5.7521873969   -1.3441299480    3.7827636174
C        1.0278638826    2.6439907298    2.6970425474
C       -0.1940769058    3.6785806604    0.7448318259
C        0.3401336631    2.3800677490    1.3541523126
N       -3.8814529190   -1.3528752662    2.1087034109
O       -5.6274556102   -2.4655034200    4.2472446862
O       -6.7657938709   -0.5375291976    4.1732830898
H        0.1248369849   -0.0650178076    0.1486813430
H       -1.6657211197   -1.7583220526    0.4040841158
H       -1.9605516123    2.5203909921    2.9205460980
H       -4.4023064253    1.2778923829    4.0330655258
H        0.3277777371    3.0726905156    3.4203247215
H        1.8606229800    3.3417103876    2.5644275103
H        1.4240160993    1.7087536984    3.1054334950
H       -0.9412577329    4.1396875308    1.3977063627
H       -0.6560229200    3.4736670337   -0.2261881159
H        0.6239758158    4.3898921363    0.5943450841
H        1.0938792467    1.9762598608    0.6698026983
H       -4.0116212349   -2.3237590448    1.8349613501
H       -7.3178911612   -1.0884298071    4.7507902282
28   

C       -0.7064131360    0.1470065184    0.8141242462
C       -1.7127639792   -0.8167258743    0.9588741107
C       -1.8594674355    1.5992224338    2.3809796472
C       -4.0580945481    0.5560275521    3.3260618367
C       -2.8569313434    0.6281130756    2.5130918044
C       -0.7606005941    1.3668065345    1.5219828558
C       -2.7757522477   -0.5537132186    1.8136844986
C       -4.6915295561   -0.6365995712    3.0422404410
C       -5.7436563493   -1.3296083416    3.8250237614
C        1.0545003987    2.6418219567    2.6923603883
C       -0.1928638286    3.6851790386    0.7608950974
C        0.3497928256    2.3840445119    1.3572435996
N       -3.8642683099   -1.3505564582    2.1418395481
O       -5.5533278557   -2.3220947437    4.5044438432
O       -6.8793304553   -0.6064708921    3.9525624476
H        0.1249207251   -0.0590115367    0.1497923635
H       -1.6622285062   -1.7535747897    0.4185958008
H       -1.9355043786    2.5195092926    2.9466448214
H       -4.3720859937    1.2759637915    4.0717945278
H        0.3632191463    3.0660141972    3.4266912580
H        1.8848457224    3.3410072727    2.5525840118
H        1.4566680034    1.7048508847    3.0907764822
H       -0.9314953040    4.1431865581    1.4255573283
H       -0.6674469179    3.4845889837   -0.2049258422
H        0.6229217540    4.3974738447    0.6029072473
H        1.0947846417    1.9840267892    0.6611775366
H       -3.9977268140   -2.3176289288    1.8582233565
H       -7.4339914500   -1.1137766372    4.5662773049
28   

C       -0.7122861161    0.1483509274    0.8467494149
C       -1.7080442925   -0.8199176665    1.0302349443
C       -1.7861624301    1.5781634763    2.4887907431
C       -3.9463953113    0.5322985146    3.5148979507
C       -2.7731658321    0.6026433209    2.6608341871
C       -0.7334562840    1.3599133544    1.5704075238
C       -2.7267271243   -0.5709062540    1.9414133991
C       -4.5678453863   -0.6674623433    3.2654296198
C       -5.7607136132   -1.2733499419    3.9280683613
C        1.1386622575    2.6334550763    2.6481115657
C       -0.2256960645    3.6918411076    0.8061495408
C        0.3588821247    2.3869751697    1.3535030052
N       -3.8074622007   -1.3667609510    2.2986373223
O       -5.7207123935   -2.0011817551    4.8993623941
O       -6.9370534031   -0.9019826811    3.3744563815
H        0.0831239649   -0.0459775159    0.1364905101
H       -1.6850668263   -1.7479228770    0.4731330798
H       -1.8377382573    2.4937803990    3.0647041525
H       -4.2673180904    1.2785818740    4.2310515448
H        0.4883593733    3.0429779430    3.4268686519
H        1.9544317462    3.3407782657    2.4689841576
H        1.5699186128    1.6946439776    3.0100276803
H       -0.9263180727    4.1374611551    1.5186588314
H       -0.7554114582    3.4999742970   -0.1324148646
H        0.5751355149    4.4113252087    0.6089953830
H        1.0641044417    2.0008549862    0.6097935281
H       -4.0042401761   -2.2980069024    1.9431357176
H       -7.6181183356   -1.3398807799    3.9090518020
28   

C       -0.7933256127    0.1771489673    0.8099514705
C       -1.7985887400   -0.7777154447    1.0101278751
C       -1.7449745294    1.5598684009    2.5639155867
C       -3.8724605688    0.5156319156    3.6605215502
C       -2.7384750769    0.5945936929    2.7557494008
C       -0.7504503069    1.3599197064    1.5788094767
C       -2.7587054538   -0.5464587038    1.9869999501
C       -4.4942707223   -0.6959417128    3.4531348401
C       -5.8127149268   -1.1594621454    3.9537379226
C        1.1906469352    2.5828548388    2.5956833409
C       -0.2493838780    3.7022467383    0.8497266891
C        0.3449660265    2.3776890446    1.3357276501
N       -3.8430567589   -1.3260227723    2.3650308349
O       -6.0629183745   -1.5071615922    5.0908484677
O       -6.6711277992   -1.4503673531    2.9467873368
H       -0.0426082661   -0.0037858606    0.0493095171
H       -1.8276315543   -1.6825071255    0.4163090041
H       -1.7482524854    2.4545681933    3.1739881478
H       -4.1920750311    1.2816852889    4.3563456708
H        0.5854901222    2.9820720190    3.4150752145
H        2.0063122183    3.2838738688    2.3928465507
H        1.6261075388    1.6301860502    2.9136176266
H       -0.9097073755    4.1368738984    1.6061975321
H       -0.8260673800    3.5398621277   -0.0664868318
H        0.5494894782    4.4178562181    0.6317196241
H        1.0079238837    2.0018914260    0.5490887177
H       -4.1597902048   -2.1765513687    1.9077117662
H       -7.4537844461   -1.8191187021    3.3866845775
28   

C       -0.7694102660    0.1889196684    0.8481538339
C       -1.7772874376   -0.7572194614    1.0758219214
C       -1.7015560519    1.6122280861    2.5798035477
C       -3.8328451403    0.6090382497    3.7041335985
C       -2.6988654942    0.6566510581    2.7975988874
C       -0.7150197158    1.3869719399    1.5923470599
C       -2.7293794757   -0.5012711259    2.0544540902
C       -4.4701540256   -0.6024412540    3.5213735214
C       -5.7970469325   -1.0163893167    4.0153400257
C        1.2545802617    2.5982672064    2.5610562667
C       -0.2098357299    3.7235944885    0.8395607213
C        0.3820462977    2.3953795302    1.3194199085
N       -3.8182112331   -1.2647554084    2.4528682724
O       -6.1430820753   -1.0740225870    5.1799780831
O       -6.5386808306   -1.6210554073    3.0540317721
H       -0.0258806962   -0.0106668328    0.0851285303
H       -1.8157703645   -1.6733506905    0.5001974354
H       -1.6968969167    2.5198010636    3.1705946979
H       -4.1489001131    1.3950840036    4.3792357306
H        0.6684404197    3.0039275949    3.3911019500
H        2.0710517469    3.2926867207    2.3396691784
H        1.6893251180    1.6433385294    2.8731516047
H       -0.8483531632    4.1696367850    1.6079731374
H       -0.8083834775    3.5625835485   -0.0627476421
H        0.5912695932    4.4297925220    0.6000452448
H        1.0249774649    2.0103660492    0.5207202495
H       -4.1532698614   -2.1173806446    2.0117041484
H       -7.3388770747   -1.9222024873    3.5139477253
28   

C       -0.7678342161    0.1936355106    0.8407300634
C       -1.7819347624   -0.7475367658    1.0622917365
C       -1.6988500226    1.6188908746    2.5712768989
C       -3.8410039543    0.6292100642    3.6840221314
C       -2.7029593507    0.6691438299    2.7823137766
C       -0.7094970488    1.3898524833    1.5877115041
C       -2.7371265578   -0.4882976741    2.0371027749
C       -4.4920259588   -0.5742330348    3.4858596909
C       -5.8049862226   -0.9857437453    3.9977311689
C        1.2642055320    2.5855219304    2.5669404592
C       -0.1875795338    3.7265688635    0.8453432548
C        0.3944385942    2.3926863717    1.3217527912
N       -3.8323156150   -1.2467841416    2.4293224837
O       -6.2134288495   -0.8290928908    5.1335999578
O       -6.4677201339   -1.7999687869    3.1376430495
H       -0.0224256399   -0.0083585891    0.0801827586
H       -1.8232381353   -1.6620769518    0.4843435251
H       -1.6915130290    2.5251670326    3.1640638622
H       -4.1501330300    1.4110972343    4.3673449206
H        0.6778193099    2.9915450110    3.3966502773
H        2.0855676295    3.2758421309    2.3508822369
H        1.6921342083    1.6267954378    2.8767833433
H       -0.8254800793    4.1737880999    1.6135907597
H       -0.7844549354    3.5729887455   -0.0593561079
H        0.6187184993    4.4285953794    0.6110170119
H        1.0374364835    2.0067981503    0.5235409956
H       -4.1650638469   -2.1057938657    1.9981101127
H       -7.2715609632   -2.0596668651    3.6163815393
28   

C       -0.7729794715    0.2015178029    0.8209814047
C       -1.7956440439   -0.7341394322    1.0266518218
C       -1.7141334719    1.6253060187    2.5472228403
C       -3.8732862278    0.6455670734    3.6338154792
C       -2.7273101340    0.6818521366    2.7419215605
C       -0.7149483665    1.3938013943    1.5743437658
C       -2.7605988497   -0.4730568259    1.9913508016
C       -4.5359977470   -0.5478606947    3.4122954464
C       -5.8264074028   -0.9786581975    3.9521444807
C        1.2580338896    2.5658066520    2.5824778339
C       -0.1663103582    3.7321210167    0.8550679676
C        0.3995874498    2.3897026973    1.3269611902
N       -3.8634222222   -1.2282060030    2.3697975642
O       -6.2991767223   -0.6495571103    5.0249264598
O       -6.4120362813   -1.9518498203    3.2085900093
H       -0.0201319022   -0.0019823938    0.0682061939
H       -1.8359411127   -1.6459209263    0.4442990622
H       -1.7070240520    2.5283479483    3.1449520527
H       -4.1757719080    1.4179372622    4.3309743831
H        0.6663556481    2.9700911459    3.4092894848
H        2.0871146512    3.2510971769    2.3803259670
H        1.6750246818    1.6012763100    2.8892073973
H       -0.8079749317    4.1790382633    1.6203495682
H       -0.7553808469    3.5905791676   -0.0566713609
H        0.6482526432    4.4289615991    0.6342170775
H        1.0475084188    2.0045983880    0.5323674232
H       -4.1839808830   -2.0982479161    1.9511566061
H       -7.2178648498   -2.1828250608    3.6987130742
28   

C       -0.7590907057    0.2317966827    0.7908085363
C       -1.7898621945   -0.6977071349    0.9840456265
C       -1.6948445385    1.6468787359    2.5271056670
C       -3.8616785239    0.6727133667    3.6019861071
C       -2.7163252904    0.7100135810    2.7092401834
C       -0.6941605958    1.4164685160    1.5556007917
C       -2.7564745197   -0.4380122751    1.9474921763
C       -4.5400916984   -0.5068694271    3.3555514157
C       -5.7976079818   -0.9650496595    3.9413779777
C        1.2792370771    2.5698260371    2.5861259111
C       -0.1226489311    3.7533469720    0.8521745776
C        0.4300124508    2.4050278162    1.3226953132
N       -3.8644843848   -1.1902010443    2.3176391246
O       -6.3343521811   -0.5044209199    4.9328328499
O       -6.3093025467   -2.0574164456    3.3183463061
H       -0.0050252897    0.0293021964    0.0389849479
H       -1.8349098005   -1.6038405724    0.3932909322
H       -1.6821680920    2.5437348751    3.1339991795
H       -4.1481625796    1.4298665505    4.3223346287
H        0.6839987379    2.9758066093    3.4095336935
H        2.1152287817    3.2494395770    2.3934786239
H        1.6862260686    1.6010102742    2.8927641218
H       -0.7682243497    4.2007246670    1.6139141192
H       -0.7045434764    3.6199872053   -0.0653871788
H        0.6984262608    4.4457902659    0.6418678810
H        1.0819780038    2.0187368471    0.5320012258
H       -4.1745083908   -2.0702789067    1.9120064183
H       -7.1139721245   -2.2700621054    3.8186201204
28   

C       -0.7819285548    0.2344759489    0.7772583390
C       -1.8239917202   -0.6845512561    0.9601000632
C       -1.7179933161    1.6568772602    2.5073581801
C       -3.9008748495    0.7017331899    3.5659915564
C       -2.7512453944    0.7309767962    2.6785033320
C       -0.7109384854    1.4170285529    1.5448188206
C       -2.7965148370   -0.4160102559    1.9151686665
C       -4.5963085683   -0.4641253137    3.3025064698
C       -5.8215452716   -0.9477713425    3.9326791651
C        1.2683476575    2.5402045186    2.5962810181
C       -0.1047018775    3.7504457620    0.8577555840
C        0.4270706837    2.3927655871    1.3253626444
N       -3.9126815292   -1.1597485334    2.2782913254
O       -6.4421167964   -0.3834280649    4.8158495214
O       -6.2440944611   -2.1388214395    3.4364868941
H       -0.0231971168    0.0249760814    0.0320790075
H       -1.8728336401   -1.5897035511    0.3681473245
H       -1.7003984086    2.5519038825    3.1168301416
H       -4.1728524096    1.4494318421    4.3017153356
H        0.6716395984    2.9489481091    3.4172663483
H        2.1141385486    3.2104868507    2.4139873596
H        1.6609843977    1.5647977676    2.9007506744
H       -0.7502604175    4.2022179277    1.6169043887
H       -0.6811956478    3.6292636872   -0.0648799421
H        0.7267787539    4.4333457886    0.6573589845
H        1.0802603917    2.0023550072    0.5377108779
H       -4.2107594800   -2.0525463066    1.8918779391
H       -7.0526948357   -2.3389677714    3.9355954297
28   

C       -0.7824211145    0.2522204411    0.7614250875
C       -1.8303822707   -0.6621902984    0.9330024076
C       -1.7247106622    1.6730630566    2.4894631880
C       -3.9174267811    0.7216335631    3.5317246204
C       -2.7644006705    0.7521856946    2.6486524872
C       -0.7110313296    1.4312320734    1.5343453098
C       -2.8089407251   -0.3919955261    1.8813844696
C       -4.6235517380   -0.4336223820    3.2503700097
C       -5.8116275527   -0.9527619262    3.9237487212
C        1.2685343127    2.5325808607    2.6073263382
C       -0.0829571353    3.7650786996    0.8674947602
C        0.4353312171    2.4003095418    1.3294038544
N       -3.9282963976   -1.1342180016    2.2372382005
O       -6.5321557814   -0.3307616817    4.6834922571
O       -6.1220950538   -2.2218080141    3.5544288384
H       -0.0188192279    0.0413442049    0.0216273330
H       -1.8788058732   -1.5653675395    0.3380030723
H       -1.7063819531    2.5649663521    3.1034697466
H       -4.1782727782    1.4562877414    4.2843856707
H        0.6688974732    2.9398538285    3.4269129889
H        2.1205298598    3.1978504897    2.4358871147
H        1.6518293893    1.5521859940    2.9076840971
H       -0.7302711261    4.2166022189    1.6252837282
H       -0.6539410250    3.6544944081   -0.0598785148
H        0.7550550553    4.4429469823    0.6774963073
H        1.0912571562    2.0105162465    0.5437199032
H       -4.2093090472   -2.0397725583    1.8681952182
H       -6.9343474483   -2.4277888827    4.0451458039
28   

C       -0.8264686796    0.2482882115    0.7537171627
C       -1.8836259363   -0.6570928893    0.9158931258
C       -1.7591784995    1.6646633291    2.4906072625
C       -3.9605413343    0.7219725115    3.5239744369
C       -2.8083216068    0.7527785860    2.6399534686
C       -0.7455045882    1.4204423467    1.5359972662
C       -2.8618615547   -0.3843535758    1.8638457201
C       -4.6860709524   -0.4163111872    3.2232415021
C       -5.8386814728   -0.9680592267    3.9368512601
C        1.2375917265    2.4999671271    2.6260920099
C       -0.0911280344    3.7495786671    0.8808224251
C        0.4116052894    2.3789749261    1.3422978323
N       -3.9868496787   -1.1200466993    2.2143433679
O       -6.6632245739   -0.3301812168    4.5660720401
O       -6.0261837668   -2.2907220503    3.6953092347
H       -0.0630651016    0.0355231919    0.0142522765
H       -1.9392266984   -1.5554408382    0.3142424080
H       -1.7331358976    2.5510861803    3.1122114235
H       -4.2026878420    1.4413767864    4.2972185381
H        0.6367486246    2.9111726904    3.4428049681
H        2.0971284322    3.1573180017    2.4618926232
H        1.6093917208    1.5151655813    2.9264860748
H       -0.7402576981    4.2042079719    1.6352038297
H       -0.6560808642    3.6467850468   -0.0511355930
H        0.7541846491    4.4206374847    0.6991918126
H        1.0692993972    1.9852755074    0.5600412268
H       -4.2569803887   -2.0343542959    1.8592911937
H       -6.8409015363   -2.5138947197    4.1742234191
28   

C       -0.8433253860    0.2596435035    0.7457644647
C       -1.9118045010   -0.6337982991    0.8987632802
C       -1.7744911397    1.6850479169    2.4761080155
C       -3.9938153491    0.7631082391    3.4915516086
C       -2.8354981966    0.7852414479    2.6154063258
C       -0.7554475636    1.4299408596    1.5299845268
C       -2.8946794307   -0.3502517188    1.8386627070
C       -4.7373286877   -0.3591525146    3.1767644894
C       -5.8680229722   -0.9306431795    3.9184847065
C        1.2333741235    2.4793724091    2.6377780247
C       -0.0667482461    3.7532722355    0.8883704832
C        0.4149182482    2.3744674868    1.3477838748
N       -4.0286474232   -1.0746970135    2.1819879508
O       -6.8039965676   -0.3109462785    4.3891141453
O       -5.9162073154   -2.2842919345    3.8333751389
H       -0.0762828792    0.0386537539    0.0124997704
H       -1.9725149371   -1.5313104934    0.2963514901
H       -1.7429977481    2.5701288844    3.0993467352
H       -4.2233506249    1.4751392375    4.2752376259
H        0.6320232850    2.8946082088    3.4520761769
H        2.1023755205    3.1263531395    2.4824745342
H        1.5904611614    1.4885945711    2.9364008134
H       -0.7149426911    4.2135012150    1.6401393545
H       -0.6266397617    3.6614337038   -0.0477757860
H        0.7885036020    4.4138571909    0.7150774423
H        1.0728782969    1.9754212240    0.5684580366
H       -4.2884769292   -1.9977140781    1.8427367862
H       -6.7366019587   -2.5294563464    4.2912405802
28   

C       -0.8520052773    0.2611186208    0.7442840248
C       -1.9251096031   -0.6277768053    0.8896788114
C       -1.7855975039    1.6856631802    2.4741376688
C       -4.0162755048    0.7696781885    3.4731167595
C       -2.8519398155    0.7906691195    2.6048619487
C       -0.7627487844    1.4285561866    1.5324678461
C       -2.9113624669   -0.3418650796    1.8252369855
C       -4.7699200906   -0.3396920674    3.1436219910
C       -5.8940696780   -0.9315941741    3.8932503350
C        1.2270980394    2.4622720179    2.6521710649
C       -0.0597026014    3.7513454025    0.9037839615
C        0.4129509345    2.3679553413    1.3587197622
N       -4.0499889937   -1.0616541271    2.1608391546
O       -6.9383429236   -0.3764327842    4.1773857444
O       -5.7886837045   -2.2796458135    4.0000505616
H       -0.0825684847    0.0388087034    0.0139252249
H       -1.9871911390   -1.5231852995    0.2842777457
H       -1.7530681924    2.5687650656    3.1000908962
H       -4.2403345184    1.4749651517    4.2642485009
H        0.6247837586    2.8765739540    3.4662267081
H        2.1000523458    3.1054106642    2.5032529262
H        1.5778627320    1.4681510679    2.9471823971
H       -0.7081886069    4.2116842949    1.6552164197
H       -0.6165976014    3.6666742458   -0.0348290791
H        0.7997029853    4.4080936076    0.7365710672
H        1.0716707427    1.9690883190    0.5799319969
H       -4.2998883237   -1.9890121439    1.8270468294
H       -6.6151176997   -2.5577765347    4.4268718994
28   

C       -0.8390945138    0.2171996325    0.7525763173
C       -1.8950702456   -0.6931505871    0.8888385808
C       -1.8185061769    1.6243560364    2.4714727014
C       -4.0482813151    0.6699306682    3.4391282235
C       -2.8688951428    0.7090143054    2.5916059233
C       -0.7809762677    1.3866246688    1.5406084284
C       -2.8961385659   -0.4259137380    1.8140569827
C       -4.7772240244   -0.4476294908    3.0966810807
C       -5.9288305161   -1.0575531594    3.8076997447
C        1.1924833603    2.4367899805    2.6683352400
C       -0.1195154777    3.7325745421    0.9436047699
C        0.3765541191    2.3498724970    1.3758153773
N       -4.0260527930   -1.1654762745    2.1346577169
O       -7.0651516508   -0.6275459136    3.8273465415
O       -5.6725933025   -2.3267259932    4.2064363887
H       -0.0588012580    0.0102773600    0.0292397694
H       -1.9337626893   -1.5894983681    0.2828881550
H       -1.8103710266    2.5090658787    3.0958999163
H       -4.2997692447    1.3762214543    4.2208375835
H        0.5843964137    2.8256231133    3.4906580521
H        2.0533117837    3.0980170576    2.5284215672
H        1.5618158021    1.4441616739    2.9452148837
H       -0.7709973323    4.1724698403    1.7045620200
H       -0.6793936596    3.6534057324    0.0062922038
H        0.7291000695    4.4046703265    0.7823001834
H        1.0390813773    1.9744163797    0.5886507470
H       -4.2553203283   -2.0927835223    1.7876744647
H       -6.5122163479   -2.6454684506    4.5745056464
28   

C       -0.8489603793    0.2681390724    0.6747334914
C       -1.8955752299   -0.6554848271    0.7941537336
C       -1.7692020719    1.5632406349    2.5104192687
C       -3.9601724292    0.5444208695    3.4978403269
C       -2.8074709154    0.6327222571    2.6178830064
C       -0.7677755572    1.3899276092    1.5273835155
C       -2.8617541750   -0.4524849452    1.7715260935
C       -4.6512399243   -0.5942563146    3.1606607866
C       -5.9479945077   -1.1089150896    3.6923408626
C        1.2293706178    2.4147970965    2.6413419863
C       -0.1534434677    3.7673105450    1.0186861567
C        0.3737269532    2.3738283557    1.3724054261
N       -3.9831064641   -1.2126677886    2.0775851199
O       -7.0409112536   -0.8423953158    3.2349022983
O       -5.8148288270   -1.8868072052    4.7902142012
H       -0.0954000605    0.1104867162   -0.0882875311
H       -1.9529159550   -1.5130433840    0.1358305064
H       -1.7440330393    2.4115491711    3.1830483211
H       -4.2377519775    1.2527166587    4.2686016029
H        0.6437052455    2.7596110575    3.4987898790
H        2.0773718413    3.0928694196    2.5036093878
H        1.6190857126    1.4160094777    2.8623842031
H       -0.7873282644    4.1624645202    1.8181292256
H       -0.7407891805    3.7224047546    0.0960051253
H        0.6807172278    4.4584843547    0.8627141792
H        1.0157563985    2.0431063916    0.5490268336
H       -4.2824160485   -2.0539569735    1.5928499000
H       -6.7205223309   -2.1275155090    5.0415610637
28   

C       -0.8228049617    0.2489498691    0.6677060585
C       -1.8422732377   -0.7032547123    0.7960236216
C       -1.7069846353    1.4653963581    2.5734829565
C       -3.8513081735    0.3746548659    3.5871694686
C       -2.7172231382    0.5055121760    2.6895961688
C       -0.7388281624    1.3475860054    1.5496690000
C       -2.7767806594   -0.5528914948    1.8128359013
C       -4.5177212593   -0.7890634660    3.2618941724
C       -5.8931500848   -1.1982705473    3.6370293352
C        1.2731932206    2.3984652282    2.6097961100
C       -0.2163332223    3.7570388801    1.0897111570
C        0.3657120117    2.3699416051    1.3774310502
N       -3.8799855213   -1.3368068750    2.1225577320
O       -6.8444208643   -1.1888765178    2.8768579809
O       -6.0709211378   -1.3157199323    4.9725264885
H       -0.0952672931    0.1339412112   -0.1275034915
H       -1.9056987128   -1.5401599044    0.1121323502
H       -1.6815882637    2.2967362700    3.2669637494
H       -4.1620403359    1.0918160748    4.3369303573
H        0.7145504381    2.6986080094    3.5013989718
H        2.0941055853    3.1062422273    2.4581886492
H        1.7011207648    1.4057797529    2.7822173300
H       -0.8257594777    4.1094793438    1.9272289868
H       -0.8419280910    3.7220112287    0.1920513491
H        0.5899568227    4.4773183344    0.9195207350
H        0.9807907699    2.0838474512    0.5175687296
H       -4.2263136742   -2.1171092408    1.5705944214
H       -7.0210599999   -1.4759059988    5.0875500780
28   

C       -0.8197985468    0.2366967216    0.6697219452
C       -1.8337832906   -0.7212541732    0.7995676505
C       -1.6970404060    1.4386654129    2.5878192097
C       -3.8344114143    0.3388104427    3.6042226102
C       -2.7025412508    0.4740138286    2.7046025352
C       -0.7351922464    1.3310160596    1.5570591360
C       -2.7626410335   -0.5807775013    1.8229235465
C       -4.5059452877   -0.8219427994    3.2684075845
C       -5.8724523689   -1.2385256555    3.6315096434
C        1.2812833196    2.3837360405    2.6055719581
C       -0.2295360297    3.7474441547    1.1114611001
C        0.3620314634    2.3607709100    1.3819555271
N       -3.8632303180   -1.3689008414    2.1320991296
O       -6.7562650720   -1.4747885331    2.8241463212
O       -6.1546129678   -1.0738106125    4.9444310398
H       -0.0975450447    0.1299852317   -0.1314319964
H       -1.8986095003   -1.5540831915    0.1108248703
H       -1.6717231836    2.2669387037    3.2849713086
H       -4.1442383601    1.0515022811    4.3587751062
H        0.7296276964    2.6732986697    3.5050014314
H        2.0969572663    3.0971255542    2.4520403151
H        1.7159895362    1.3918897520    2.7653682300
H       -0.8318967016    4.0904223144    1.9579650326
H       -0.8641362958    3.7167887484    0.2199843265
H        0.5715786254    4.4729266883    0.9388992880
H        0.9698969180    2.0849418317    0.5136551568
H       -4.2176021648   -2.1430449092    1.5756681814
H       -7.0993099566   -1.2801405697    5.0268503143
28   

C       -0.8254093445    0.2515411975    0.6569126426
C       -1.8410527806   -0.7052301629    0.7831174895
C       -1.6960224250    1.4440160838    2.5839709016
C       -3.8314042601    0.3422325033    3.6013901004
C       -2.7036632254    0.4812218668    2.6968373790
C       -0.7363861304    1.3402035550    1.5508244350
C       -2.7676507690   -0.5690860343    1.8090734393
C       -4.5104849702   -0.8114995654    3.2529426883
C       -5.8466392577   -1.2737979431    3.6447136256
C        1.2860455404    2.3781430884    2.6023034431
C       -0.2237023508    3.7584958368    1.1225687687
C        0.3637337681    2.3677374275    1.3807696028
N       -3.8673922229   -1.3588356969    2.1179261459
O       -6.6656075215   -1.7429806067    2.8685574269
O       -6.1956237703   -0.9291434998    4.9061053546
H       -0.1048273592    0.1479368704   -0.1461504450
H       -1.9087071701   -1.5341950263    0.0899835318
H       -1.6668263355    2.2674932457    3.2866387814
H       -4.1293155444    1.0424824122    4.3723403703
H        0.7375287693    2.6624852884    3.5053180024
H        2.1037186551    3.0900116885    2.4523782277
H        1.7178635556    1.3836644850    2.7533518988
H       -0.8226088306    4.0970381191    1.9732976978
H       -0.8607197346    3.7369357433    0.2325603283
H        0.5795090439    4.4824905483    0.9535363898
H        0.9685233235    2.0965746262    0.5088622655
H       -4.2208096672   -2.1396962195    1.5695048291
H       -7.1185067176   -1.2147928803    4.9989089585
28   

C       -0.8491728318    0.2601004526    0.6390812909
C       -1.8700422702   -0.6914729812    0.7628426984
C       -1.7100885840    1.4498739066    2.5722070156
C       -3.8450890314    0.3524985424    3.5947048168
C       -2.7233655007    0.4927815162    2.6824928334
C       -0.7521590306    1.3442329341    1.5377083387
C       -2.7943832420   -0.5544111607    1.7906777076
C       -4.5345213537   -0.7925578969    3.2365307664
C       -5.8312240936   -1.3082785185    3.6743937770
C        1.2784799887    2.3605916597    2.5944744053
C       -0.2200960958    3.7605121019    1.1218572530
C        0.3561111566    2.3638290863    1.3728159160
N       -3.8939268210   -1.3434336365    2.1026168931
O       -6.5694137211   -1.9889497970    2.9756171731
O       -6.2378855042   -0.8364136061    4.8762227318
H       -0.1298155993    0.1551544152   -0.1649030456
H       -1.9426231602   -1.5180487643    0.0673468435
H       -1.6738626851    2.2691966438    3.2793946922
H       -4.1247364508    1.0383303131    4.3852886798
H        0.7323281821    2.6448338600    3.4989572314
H        2.1019417834    3.0665249903    2.4481984899
H        1.7022410843    1.3619105645    2.7405925524
H       -0.8163331384    4.0993393328    1.9743469465
H       -0.8571592651    3.7486478986    0.2317135342
H        0.5889512929    4.4788767527    0.9566871407
H        0.9588091040    2.0922182090    0.4996035150
H       -4.2406161737   -2.1394287911    1.5712646758
H       -7.1254343702   -1.2073890405    5.0051341161
28   

C       -0.9057840859    0.2456686217    0.6051560482
C       -1.9370463687   -0.6947185744    0.7281373874
C       -1.7454179141    1.4357839253    2.5475143454
C       -3.8808115058    0.3506523709    3.5824137867
C       -2.7692573815    0.4899618155    2.6572384107
C       -0.7924465496    1.3237921177    1.5091052217
C       -2.8556546724   -0.5523612749    1.7603320347
C       -4.5873763992   -0.7815025797    3.2157750104
C       -5.8371037687   -1.3473621823    3.7156515751
C        1.2494820361    2.3127549566    2.5719760680
C       -0.2277051125    3.7322749361    1.0964863278
C        0.3299696036    2.3283915683    1.3480361298
N       -3.9570682358   -1.3362760176    2.0786588035
O       -6.4818163694   -2.2064048139    3.1287967693
O       -6.2884126729   -0.7839994745    4.8609865841
H       -0.1900273219    0.1357120417   -0.2013672235
H       -2.0207013986   -1.5180728128    0.0300618158
H       -1.6953889040    2.2497069089    3.2600788493
H       -4.1326223497    1.0185511399    4.3973797875
H        0.7054874933    2.6046621209    3.4753046667
H        2.0828140013    3.0073952276    2.4275145176
H        1.6593786656    1.3084663512    2.7192629524
H       -0.8224836115    4.0775099131    1.9474384022
H       -0.8620082179    3.7290345464    0.2043091973
H        0.5908417167    4.4405356410    0.9345560347
H        0.9314273343    2.0492249687    0.4763540490
H       -4.2958876490   -2.1500794408    1.5692632680
H       -7.1283383727   -1.2327687186    5.0484608720
28   

C       -0.9245277114    0.2959907247    0.5685325913
C       -1.9645797872   -0.6364396372    0.6771225810
C       -1.7570972240    1.4680106466    2.5249137812
C       -3.8931746733    0.3776671001    3.5531632264
C       -2.7895459718    0.5300393667    2.6204621199
C       -0.8027399937    1.3605909028    1.4872895506
C       -2.8836775105   -0.4995197519    1.7095979309
C       -4.6110752842   -0.7411827637    3.1681267914
C       -5.8023309394   -1.3745190379    3.7238753191
C        1.2433835032    2.3144447488    2.5756133368
C       -0.2071464865    3.7657535828    1.1045834101
C        0.3327584630    2.3532785153    1.3453065407
N       -3.9851872242   -1.2850526804    2.0234380875
O       -6.3227331952   -2.3789757096    3.2558742072
O       -6.3066652619   -0.7605363698    4.8200386780
H       -0.2071408841    0.1890778797   -0.2369500036
H       -2.0527678489   -1.4513460544   -0.0302498616
H       -1.6989856094    2.2699535833    3.2503365893
H       -4.1199865564    1.0161935675    4.3984526456
H        0.6967897131    2.6039822970    3.4781259910
H        2.0859692649    3.0004258731    2.4439639352
H        1.6403444294    1.3039533253    2.7158236056
H       -0.8046956718    4.1082669884    1.9547044295
H       -0.8345220169    3.7789317567    0.2076254013
H        0.6204973031    4.4664197116    0.9565064149
H        0.9374885216    2.0760789725    0.4752631586
H       -4.3060201011   -2.1156682751    1.5295898584
H       -7.0824017690   -1.2877521067    5.0696288839
