25   
Generated by ForceBalance from scan.xyz: Frame 1 of 24
C       -0.6502526394   -4.9188825535   -4.5443233099
C       -0.9757165290   -3.9091978301   -3.5887973017
C        0.6550806228   -5.3307106432   -4.4601522946
C       -0.5290893048   -1.3603613571   -1.5478473606
C        0.1329466300   -2.5791228496   -1.7136957928
C        0.0884622757   -3.5581856612   -2.7841830224
C       -0.0542810240   -0.8491884139   -0.3039753293
C       -1.8911268459    0.6514304498   -2.3179156531
C       -0.4137188761    0.4234351479    0.4042450361
C       -1.5710789982   -0.8178080961   -2.4933569371
N        0.8432825128   -1.6779889926    0.2441592885
N        0.9517559025   -2.7058560844   -0.6256460465
O       -2.9389641516    1.0988081740   -1.8971580720
O       -0.8651937533    1.4506484362   -2.7157102809
S        1.5167263871   -4.4735231421   -3.2248935027
H       -1.3580322216   -5.3285753822   -5.2573627474
H       -1.9664456773   -3.4840260238   -3.4760116275
H        1.1636355210   -6.0801136213   -5.0530320505
H       -1.4962904869    0.5298028947    0.5196140149
H        0.0447523983    0.4235894771    1.3954401512
H       -0.0492227110    1.2989872393   -0.1425391538
H       -2.5211323954   -1.3444652875   -2.3669590260
H       -1.2373780770   -0.9717434575   -3.5258971751
H        1.5218313047   -3.5042339969   -0.3788531816
H       -1.1643112218    2.3693854084   -2.5729050728
25   
Generated by ForceBalance from scan.xyz: Frame 2 of 24
C       -0.6854057775   -4.9447667385   -4.5304958408
C       -1.0043926836   -3.9840680516   -3.5234599181
C        0.6506967036   -5.2522425472   -4.5674418253
C       -0.5487502730   -1.4158235941   -1.5016165634
C        0.1500505408   -2.6037613731   -1.7173361707
C        0.0951506866   -3.5649847601   -2.8040464854
C       -0.0565041548   -0.9182023659   -0.2597986597
C       -1.7313523232    0.6552104564   -2.3942011267
C       -0.4462832698    0.3320467616    0.4699419585
C       -1.6263731633   -0.8565729837   -2.3900828120
N        0.8843274548   -1.7254893225    0.2436411607
N        1.0050834024   -2.7273568157   -0.6563329096
O       -2.7278879983    1.2916693352   -2.1153209689
O       -0.5733995599    1.2501843509   -2.7857170059
S        1.5465795583   -4.3543105127   -3.3866688543
H       -1.4179931934   -5.3963715339   -5.1912502729
H       -2.0114560018   -3.6428741163   -3.3102926373
H        1.1624454813   -5.9480491240   -5.2199692114
H       -1.5331017482    0.4243763950    0.5578408459
H       -0.0136681286    0.3193098998    1.4726761855
H       -0.0802416380    1.2240854524   -0.0494397000
H       -2.6152622996   -1.2276549470   -2.1060475917
H       -1.4384280300   -1.1725031146   -3.4227942281
H        1.6038909356   -3.5142977369   -0.4433056384
H       -0.7459243537    2.2113483060   -2.7773399541
25   
Generated by ForceBalance from scan.xyz: Frame 3 of 24
C       -0.7068118497   -4.9175444607   -4.5226019434
C       -1.0318313154   -4.0091041616   -3.4698596380
C        0.6445329134   -5.1069710250   -4.6620088139
C       -0.6130117974   -1.4187419735   -1.4480626921
C        0.1295072123   -2.5671898183   -1.7166902361
C        0.0775668229   -3.5103127378   -2.8204640960
C       -0.0948889663   -0.9228621821   -0.2168667413
C       -1.6321436850    0.6656031804   -2.4781259689
C       -0.5150270822    0.3045547676    0.5329350616
C       -1.7144787737   -0.8375463770   -2.2873884797
N        0.8951503574   -1.6979903116    0.2381935375
N        1.0257287245   -2.6759766131   -0.6878092730
O       -2.5374331637    1.4495269725   -2.2723970964
O       -0.4178762282    1.0607395087   -2.9430878427
S        1.5442339019   -4.1588881136   -3.5244215915
H       -1.4444360675   -5.4182779958   -5.1409909835
H       -2.0455434674   -3.7610724669   -3.1740781012
H        1.1644895227   -5.7434724497   -5.3665767626
H       -1.6013581410    0.3418075530    0.6627712262
H       -0.0425260607    0.3162381067    1.5175165807
H       -0.2191991366    1.2155924314    0.0009854122
H       -2.7030520601   -1.0397052045   -1.8657383252
H       -1.6826388074   -1.2873566221   -3.2860728675
H        1.6608139234   -3.4432730182   -0.5113304210
H       -0.4719049406    2.0293596313   -3.0548389706
25   
Generated by ForceBalance from scan.xyz: Frame 4 of 24
C       -0.7396020856   -4.8240425996   -4.6400060628
C       -1.0697499061   -4.0318775055   -3.4986260066
C        0.6087588654   -4.8572114404   -4.8905124326
C       -0.7091110021   -1.5119987674   -1.3491247333
C        0.0752468051   -2.6000964784   -1.7263513254
C        0.0316181617   -3.4638952311   -2.8952880093
C       -0.1708104879   -1.0805047407   -0.1018765104
C       -1.5791433435    0.5752252470   -2.4409049394
C       -0.6213646817    0.0705017596    0.7454620171
C       -1.8367927613   -0.8863328504   -2.1204072330
N        0.8666698449   -1.8404880096    0.2644656092
N        1.0093992272   -2.7406553989   -0.7363035878
O       -2.2205910703    1.5163339759   -2.0169764344
O       -0.5207082418    0.7315676865   -3.2786337713
S        1.4955267839   -3.9004688491   -3.7505868723
H       -1.4696044718   -5.3564723395   -5.2407186014
H       -2.0762742363   -3.9130391577   -3.1115060590
H        1.1323740299   -5.3835051296   -5.6784269231
H       -1.7054067008    0.0519810303    0.8964552232
H       -0.1274624724    0.0295477779    1.7187490786
H       -0.3821045774    1.0311127142    0.2767169934
H       -2.7782603517   -0.9255344995   -1.5662882424
H       -1.9712824027   -1.4172063336   -3.0671712448
H        1.6792934563   -3.4919027652   -0.6349716375
H       -0.4222760174    1.6927432412   -3.4196908802
25   
Generated by ForceBalance from scan.xyz: Frame 5 of 24
C       -0.6904033304   -4.7491783048   -4.5939277533
C       -1.0352094120   -4.0002752403   -3.4279863647
C        0.6521089976   -4.7069789527   -4.8734058494
C       -0.7290700292   -1.4846615736   -1.2448272381
C        0.0751369638   -2.5493424720   -1.6473847976
C        0.0482074320   -3.3903622769   -2.8345668747
C       -0.1956168187   -1.0674567228    0.0100366091
C       -1.4039875345    0.5093526537   -2.5597314125
C       -0.6759303501    0.0474175242    0.8883782359
C       -1.8483983168   -0.8364149066   -2.0144793911
N        0.8550486681   -1.8176639971    0.3591381950
N        1.0116012650   -2.6943768647   -0.6607723924
O       -1.6299033137    1.5900552378   -2.0509445971
O       -0.6762390825    0.3760510624   -3.6994531550
S        1.5129867303   -3.7314366552   -3.7300229588
H       -1.4052410119   -5.3053496449   -5.1913675756
H       -2.0382235313   -3.9399286836   -3.0187271701
H        1.1843571504   -5.1885802416   -5.6838177762
H       -1.7297252944   -0.0900061125    1.1560482500
H       -0.0845574733    0.0757071467    1.8060573145
H       -0.5989413356    1.0149938134    0.3834847980
H       -2.7141097692   -0.6565077602   -1.3726619759
H       -2.1495833593   -1.4705834122   -2.8503637766
H        1.6980745354   -3.4329881351   -0.5789725081
H       -0.3932912627    1.2759624623   -3.9520079054
25   
Generated by ForceBalance from scan.xyz: Frame 6 of 24
C       -0.5690639545   -4.5888214175   -4.6122172746
C       -0.9540131811   -3.9095736780   -3.4167733157
C        0.7754616327   -4.4922780534   -4.8675801399
C       -0.7596591957   -1.4932770779   -1.1132517692
C        0.0851406105   -2.5114425560   -1.5525725778
C        0.1007925919   -3.2988665893   -2.7760278439
C       -0.2404853079   -1.0980673051    0.1536781656
C       -1.3201395923    0.3844751316   -2.6154968203
C       -0.7498535564   -0.0119892246    1.0512936940
C       -1.8715564411   -0.8197067091   -1.8730516995
N        0.8318200839   -1.8255736851    0.4835757277
N        1.0199548002   -2.6617468160   -0.5652650722
O       -1.2867162332    1.5223473740   -2.1891218031
O       -0.8137269560    0.0413577279   -3.8287999367
S        1.5888326960   -3.5507860733   -3.6624859346
H       -1.2577216623   -5.1347778741   -5.2485892785
H       -1.9657268273   -3.8952446391   -3.0253632613
H        1.3342515681   -4.9165837557   -5.6920103886
H       -1.7836840814   -0.2060507021    1.3598303227
H       -0.1285692249    0.0507162390    1.9472020339
H       -0.7378963576    0.9560917301    0.5407688550
H       -2.6407397750   -0.4586258259   -1.1875647462
H       -2.3273615048   -1.5034586074   -2.5909650477
H        1.7317523810   -3.3783691575   -0.5072014751
H       -0.4300895011    0.8559817236   -4.2071292648
25   
Generated by ForceBalance from scan.xyz: Frame 7 of 24
C       -0.3011636849   -4.3943204797   -4.6254712799
C       -0.7863420304   -3.6939045489   -3.4801032982
C        1.0678784504   -4.4777231670   -4.6565296570
C       -0.7360031158   -1.4541431846   -1.0306866738
C        0.1100248520   -2.4949961052   -1.4109558113
C        0.2190605187   -3.2466885570   -2.6499183606
C       -0.3101279539   -1.0895983246    0.2758625789
C       -1.2119716859    0.1734234740   -2.8994131133
C       -0.8481438926    0.0061531537    1.1450876396
C       -1.7824747902   -0.7812961055   -1.8604805495
N        0.7102969354   -1.8517295177    0.6852074103
N        0.9563821372   -2.6836893096   -0.3535655167
O       -0.0771948114    0.5952848071   -2.9495794686
O       -2.1708333983    0.5407636426   -3.7968044295
S        1.7871041417   -3.6781187333   -3.2988223236
H       -0.9410515514   -4.8263378837   -5.3878364063
H       -1.8389768177   -3.5537790349   -3.2603931089
H        1.6954508547   -4.9532575051   -5.3994048029
H       -1.9221874509   -0.1143494240    1.3263681379
H       -0.3341686502   -0.0000834671    2.1086367384
H       -0.6974052735    0.9873542849    0.6811679694
H       -2.4465540203   -0.1842075615   -1.2249627484
H       -2.4353484803   -1.4870354669   -2.3794918477
H        1.6489181673   -3.4137591606   -0.2494613828
H       -1.7414953657    1.1663045205   -4.4118258665
25   
Generated by ForceBalance from scan.xyz: Frame 8 of 24
C       -0.4411422411   -4.1251068139   -4.7548970148
C       -0.8758792233   -3.4224858502   -3.5912405490
C        0.9011363864   -4.4068229795   -4.7363569864
C       -0.7347452091   -1.4265971140   -0.9917295097
C        0.0778154196   -2.4751758707   -1.4245193798
C        0.1421664174   -3.1739079549   -2.6944782550
C       -0.2875602905   -1.1294529041    0.3239675835
C       -1.2993404544   -0.0625740319   -3.0403433362
C       -0.7943579772   -0.0674050211    1.2524105350
C       -1.8071619715   -0.7303679364   -1.7702662746
N        0.7188291313   -1.9327878081    0.6883339732
N        0.9292572174   -2.7296252811   -0.3853830988
O       -0.1925664043    0.3978470163   -3.2158979541
O       -2.2778121911    0.0005061102   -3.9879729598
S        1.6614972126   -3.7941453415   -3.3052701390
H       -1.0987187273   -4.4157378974   -5.5675345965
H       -1.9055796699   -3.1338340739   -3.4143423136
H        1.4899211114   -4.9279796089   -5.4802818449
H       -1.8585366284   -0.2023264285    1.4762893796
H       -0.2387860200   -0.1039132386    2.1918871604
H       -0.6699079930    0.9312000537    0.8187766487
H       -2.2406719933    0.0721381442   -1.1621995410
H       -2.6405544202   -1.3885187594   -2.0305433897
H        1.6143189558   -3.4712524001   -0.3223652196
H       -1.8856362641    0.4685009778   -4.7504904045
25   
Generated by ForceBalance from scan.xyz: Frame 9 of 24
C       -0.4531514845   -4.0852034285   -4.7458234708
C       -0.8887044629   -3.4319965315   -3.5539189811
C        0.9064491330   -4.2656669569   -4.7861993373
C       -0.7327152967   -1.3819083544   -0.9894242030
C        0.0754894063   -2.4329337980   -1.4215253758
C        0.1462675021   -3.1185664814   -2.6988971158
C       -0.3247579728   -1.1291795101    0.3494711896
C       -1.2525437765   -0.2143687031   -3.1718566691
C       -0.8438008575   -0.0831130000    1.2891273118
C       -1.7452798702   -0.6187219295   -1.7898469085
N        0.6527685321   -1.9619073442    0.7257994931
N        0.8866323804   -2.7319033775   -0.3624589183
O       -0.1365948291    0.1677751921   -3.4492769705
O       -2.2512486064   -0.2871296675   -4.0966878235
S        1.6794650843   -3.6154327328   -3.3790380161
H       -1.1209601689   -4.4169152316   -5.5340434446
H       -1.9273092333   -3.2208344981   -3.3244601238
H        1.4992734153   -4.7358961579   -5.5603669311
H       -1.9169343637   -0.2049987088    1.4736399862
H       -0.3198410083   -0.1533484036    2.2447307491
H       -0.6893907396    0.9249525635    0.8874413280
H       -1.9899638695    0.3153717328   -1.2712203167
H       -2.6891824050   -1.1608375558   -1.9016119907
H        1.5513976038   -3.4916339962   -0.2978693623
H       -1.8591152676    0.0141350956   -4.9392137244
25   
Generated by ForceBalance from scan.xyz: Frame 10 of 24
C       -0.4671059032   -4.0783558675   -4.7389376239
C       -0.9098078247   -3.4754686337   -3.5230325230
C        0.9009185931   -4.1354469696   -4.8343602282
C       -0.7373761819   -1.3393372449   -0.9831662458
C        0.0435149550   -2.4078480936   -1.4204326358
C        0.1275601479   -3.0757930198   -2.7092428542
C       -0.3778654039   -1.1560601141    0.3823498456
C       -1.2600573067   -0.2959414964   -3.2339104777
C       -0.8913229313   -0.1204534013    1.3360281317
C       -1.6679825890   -0.4679033570   -1.7794695887
N        0.5460047757   -2.0440569192    0.7658476138
N        0.7947920822   -2.7818539503   -0.3402520955
O       -0.1593760207    0.0261307708   -3.6270683825
O       -2.3060957280   -0.5043626522   -4.0813493160
S        1.6695948749   -3.4317811141   -3.4517453483
H       -1.1338465072   -4.4649996035   -5.5027392489
H       -1.9516364367   -3.3540863521   -3.2469937546
H        1.5006462116   -4.5469644588   -5.6363005074
H       -1.9769103641   -0.1949371649    1.4642678858
H       -0.4182677821   -0.2492973273    2.3118675727
H       -0.6708756778    0.8927649386    0.9798611068
H       -1.6734316251    0.5384039154   -1.3456870090
H       -2.7000977919   -0.8301315912   -1.7447831741
H        1.4183309406   -3.5760823373   -0.2794554050
H       -1.9536233481   -0.3598237491   -4.9810579458
25   
Generated by ForceBalance from scan.xyz: Frame 11 of 24
C       -1.0392005126   -4.3751006017   -4.6698062846
C       -0.3896141652   -3.2641881123   -4.0503786500
C       -1.5855739923   -5.2450381410   -3.7585178755
C       -0.2476602865   -0.9920951922   -1.4475447072
C        0.0634005217   -2.3234052823   -1.7168963453
C       -0.4565206910   -3.2967871089   -2.6764355048
C        0.6270923348   -0.6168734137   -0.3860354894
C       -1.9688450346   -0.6115009336   -3.2781037212
C        0.7099104668    0.7122552766    0.3000438670
C       -1.3200287932   -0.0929098866   -2.0125937747
N        1.4169780308   -1.6326256489   -0.0244460406
N        1.0534097405   -2.6538542998   -0.8295310600
O       -1.6236753290   -0.3344826480   -4.4098036325
O       -3.0091151673   -1.4411885506   -3.0109745207
S       -1.3280924453   -4.7134056909   -2.1319470276
H       -1.0874029915   -4.5274051137   -5.7430448800
H        0.0962339278   -2.4604611358   -4.5917862322
H       -2.1155061226   -6.1697687783   -3.9500856064
H       -0.2380823839    0.9717451297    0.7855758985
H        1.4916285645    0.6890940354    1.0622569291
H        0.9424443717    1.5136324691   -0.4106181793
H       -0.8882329715    0.8810653061   -2.2574516880
H       -2.1001059606    0.0638736377   -1.2593691014
H        1.5615107319   -3.5278214531   -0.7921216064
H       -3.3146998456   -1.7877103087   -3.8714716852
25   
Generated by ForceBalance from scan.xyz: Frame 12 of 24
C       -1.0005612198   -4.3509303523   -4.6979155159
C       -0.4010449547   -3.2238652483   -4.0575784576
C       -1.4745048572   -5.2791453026   -3.8045902953
C       -0.2054119432   -0.9847147129   -1.4853061800
C        0.0537736120   -2.3367234768   -1.7041805448
C       -0.4353002858   -3.3011302127   -2.6840864887
C        0.5994698299   -0.6340824825   -0.3614837509
C       -2.0243927178   -0.6406776578   -3.2454599509
C        0.6917765130    0.7023999794    0.3086235778
C       -1.1746638078   -0.0372964585   -2.1477838135
N        1.3024061778   -1.6805607082    0.0814224171
N        0.9491164734   -2.6994176831   -0.7320223077
O       -1.8961635314   -0.4218483313   -4.4340072148
O       -2.9859086815   -1.4605439402   -2.7510420798
S       -1.2144091916   -4.7814084915   -2.1664613750
H       -1.0655596392   -4.4713859761   -5.7742292171
H        0.0333126817   -2.3832674621   -4.5863959877
H       -1.9549839680   -6.2266624179   -4.0140021551
H       -0.2784446082    1.0140258852    0.7134182489
H        1.4083111117    0.6573239681    1.1314844675
H        1.0166185403    1.4791355846   -0.3929692162
H       -0.6388144944    0.8040083770   -2.5955877210
H       -1.8501649530    0.3684400525   -1.3855293116
H        1.4132842695   -3.5939446858   -0.6440084408
H       -3.4409973666   -1.8487797793   -3.5228891002
25   
Generated by ForceBalance from scan.xyz: Frame 13 of 24
C       -0.9632394350   -4.3214276973   -4.7284336510
C       -0.4063683324   -3.1870199820   -4.0635069651
C       -1.3730908051   -5.2995265071   -3.8576791523
C       -0.1686754651   -0.9877208193   -1.5226739344
C        0.0526538365   -2.3535032773   -1.6952066342
C       -0.4078969448   -3.3091920073   -2.6923647009
C        0.5667465667   -0.6420637947   -0.3515588934
C       -2.0840216839   -0.6709836299   -3.1942948904
C        0.6626370322    0.7026278748    0.3020113418
C       -1.0482377497   -0.0349625974   -2.2894966838
N        1.1964652335   -1.7038076284    0.1607557227
N        0.8618430521   -2.7279986863   -0.6553195568
O       -2.1670037391   -0.4945283845   -4.3939617400
O       -2.9580843590   -1.4482705476   -2.5070293574
S       -1.1073398778   -4.8402847986   -2.2083082582
H       -1.0460335847   -4.4097685057   -5.8065619318
H       -0.0182786097   -2.3140500362   -4.5757803795
H       -1.8125512529   -6.2618643938   -4.0880984977
H       -0.3215496520    1.0583319545    0.6294300960
H        1.3136392720    0.6444821759    1.1768826946
H        1.0694933346    1.4533666808   -0.3846898769
H       -0.4562620769    0.6327426064   -2.9217364186
H       -1.5903131428    0.5949462132   -1.5739193928
H        1.2871477982   -3.6353619620   -0.5168092022
H       -3.5603516408   -1.8358371365   -3.1706136376
25   
Generated by ForceBalance from scan.xyz: Frame 14 of 24
C       -0.9355914290   -4.2789990422   -4.7817605635
C       -0.4203800239   -3.1417239019   -4.0893708985
C       -1.2710349777   -5.3079569847   -3.9388016054
C       -0.1376890508   -0.9966116068   -1.5655408116
C        0.0590540947   -2.3700736930   -1.7076421878
C       -0.3765176483   -3.3133761199   -2.7234536327
C        0.5234037318   -0.6541636966   -0.3515816269
C       -2.1303507704   -0.6555956178   -3.1413663211
C        0.6126503642    0.6945359382    0.2955760997
C       -0.9314732783   -0.0564011187   -2.4295091074
N        1.0902163451   -1.7251432725    0.2141503435
N        0.7868700326   -2.7512357956   -0.6131744664
O       -2.3863611419   -0.4985155268   -4.3192264268
O       -2.9343197396   -1.3599402116   -2.3065243826
S       -0.9893035083   -4.8932474998   -2.2797486667
H       -1.0441759988   -4.3321941738   -5.8598558132
H       -0.0876692246   -2.2346302313   -4.5811595167
H       -1.6687537321   -6.2822961983   -4.1929630325
H       -0.3810789477    1.0822788701    0.5489080206
H        1.1965191672    0.6252103010    1.2158348262
H        1.0918875443    1.4255534129   -0.3649898237
H       -0.3179498355    0.4080279638   -3.2068196316
H       -1.3159905218    0.7583006396   -1.8042446822
H        1.1725157514   -3.6681771432   -0.4292112895
H       -3.6630030569   -1.7041959861   -2.8576448869
25   
Generated by ForceBalance from scan.xyz: Frame 15 of 24
C       -0.9134881661   -4.2880771742   -4.7964919992
C       -0.4635653598   -3.1321473434   -4.0905586045
C       -1.1173477421   -5.3680675178   -3.9760842259
C       -0.1096177614   -1.0204970055   -1.5940343102
C        0.0762206177   -2.3989217983   -1.7101829518
C       -0.3332457708   -3.3416963924   -2.7343347765
C        0.4821890617   -0.6718275349   -0.3483121173
C       -2.1664802084   -0.5927239609   -3.0549977819
C        0.5530065917    0.6818198202    0.2914936420
C       -0.8256263211   -0.0986613210   -2.5379435814
N        1.0008938288   -1.7436838671    0.2613328920
N        0.7340901780   -2.7763908646   -0.5718369478
O       -2.5524269812   -0.4714006508   -4.2013849426
O       -2.9283047858   -1.1538449528   -2.0837486815
S       -0.7884214103   -4.9821865587   -2.3186083087
H       -1.0735992295   -4.3162234056   -5.8690874276
H       -0.2345309924   -2.1875833585   -4.5702641644
H       -1.4476206494   -6.3636468219   -4.2436431128
H       -0.4479096159    1.0884935671    0.4762842137
H        1.0742696015    0.6102437255    1.2484434273
H        1.0891035388    1.3979383429   -0.3411255868
H       -0.2295719742    0.1463135034   -3.4213807117
H       -1.0252128986    0.8502587537   -2.0265138286
H        1.0976386558   -3.6946150272   -0.3526073253
H       -3.7602864644   -1.4261234847   -2.5162509334
25   
Generated by ForceBalance from scan.xyz: Frame 16 of 24
C       -0.8923596948   -4.3874732997   -4.7729151266
C       -0.5773694140   -3.1914333023   -4.0613375140
C       -0.8434771547   -5.5083030106   -3.9849923968
C       -0.1161431171   -1.0666073514   -1.6127867132
C        0.0664293139   -2.4495789177   -1.7027464486
C       -0.2907301296   -3.4106220882   -2.7294844989
C        0.4022272895   -0.7056055802   -0.3393754238
C       -2.1889557209   -0.4571637151   -2.9662313935
C        0.4404238146    0.6560957748    0.2856616035
C       -0.7427235525   -0.1463093176   -2.6187440726
N        0.8797400511   -1.7711245786    0.3125702962
N        0.6592715459   -2.8124354014   -0.5238863942
O       -2.6425370823   -0.4868646633   -4.0938356283
O       -2.9523659401   -0.6700323602   -1.8655446729
S       -0.4328446082   -5.1169472180   -2.3473936960
H       -1.1441704436   -4.4119930124   -5.8278580305
H       -0.5672083742   -2.2124761886   -4.5241478070
H       -1.0362089797   -6.5368999697   -4.2614025575
H       -0.5687735422    1.0644132724    0.4098770670
H        0.9097623631    0.5961199860    1.2698687722
H        1.0121623196    1.3636729891   -0.3252644905
H       -0.1937195710   -0.1183079431   -3.5629733107
H       -0.7336876542    0.8741891590   -2.2197547748
H        0.9986109168   -3.7293263873   -0.2644233703
H       -3.8553377452   -0.8496182485   -2.1909410289
25   
Generated by ForceBalance from scan.xyz: Frame 17 of 24
C       -0.9462976904   -4.6165793494   -4.6933294458
C       -1.0440911611   -3.4611222748   -3.8597316500
C       -0.0598557344   -5.5493727656   -4.2201106963
C       -0.0910145969   -1.1584476814   -1.6494796400
C       -0.0291831696   -2.5562511529   -1.6869238499
C       -0.2231423043   -3.5244617613   -2.7530809617
C        0.2944336489   -0.8033665118   -0.3255246656
C       -2.1057248890   -0.2076532565   -2.7908855941
C        0.3753398908    0.5700296972    0.2679516156
C       -0.5898339454   -0.2110426510   -2.7057986316
N        0.6008614808   -1.8842300503    0.3978201659
N        0.4057937996   -2.9271082213   -0.4429945141
O       -2.7763192563   -0.7335248158   -3.6591628088
O       -2.6666411370    0.4615092902   -1.7500029813
S        0.6951057983   -5.0217965472   -2.7528991206
H       -1.5205900037   -4.7513871531   -5.6040401735
H       -1.7149953192   -2.6328365588   -4.0547931186
H        0.2010180331   -6.5094456636   -4.6468737855
H       -0.5989597456    1.0686785661    0.2372873484
H        0.7028314703    0.5039169211    1.3076601540
H        1.0878713131    1.2003307656   -0.2766728442
H       -0.2156822792   -0.4880055953   -3.6949284006
H       -0.2536066273    0.8036720162   -2.4774345621
H        0.5342842248   -3.8692280805   -0.0976924931
H       -3.6341731764    0.3835465477   -1.8588983050
25   
Generated by ForceBalance from scan.xyz: Frame 18 of 24
C       -0.9666031909   -4.6452137466   -4.6641403335
C       -1.0942555585   -3.5342242250   -3.7757126196
C        0.0461138808   -5.5010245990   -4.3131868080
C       -0.1307089680   -1.2139340171   -1.6202604493
C        0.0160930240   -2.6020445218   -1.6742485209
C       -0.1672191700   -3.5549408907   -2.7545601596
C        0.2365376316   -0.8494622101   -0.2935277243
C       -2.0829354211   -0.1250485257   -2.7148783829
C        0.2667501245    0.5231527009    0.3060699759
C       -0.5748390007   -0.2969560187   -2.7262630281
N        0.5933302813   -1.9220102454    0.4202606892
N        0.4619745426   -2.9659457702   -0.4330954963
O       -2.8768023062   -0.7638661899   -3.3797906275
O       -2.4813623255    0.8291308064   -1.8327403821
S        0.8830545936   -4.9527626929   -2.8983522616
H       -1.6099690044   -4.8073841447   -5.5227334292
H       -1.8564509513   -2.7673300155   -3.8626361544
H        0.3538463880   -6.4166227578   -4.8020678685
H       -0.7219505507    0.9907857014    0.2700312495
H        0.5955855543    0.4654874735    1.3458565838
H        0.9579920153    1.1781955298   -0.2372731294
H       -0.3005761238   -0.7095714655   -3.6996605606
H       -0.1067201522    0.6843361309   -2.6106130881
H        0.6170614832   -3.9057281011   -0.0923865782
H       -3.4581038122    0.8348443093   -1.8553423626
25   
Generated by ForceBalance from scan.xyz: Frame 19 of 24
C       -0.9796815306   -4.6626726453   -4.6586479155
C       -1.1173686181   -3.5906013720   -3.7252964663
C        0.1158671248   -5.4506272156   -4.4117449501
C       -0.1886175850   -1.2620599400   -1.6126584777
C        0.0610621521   -2.6324627641   -1.6859945887
C       -0.1150016982   -3.5730527249   -2.7774624057
C        0.1634797090   -0.8890510897   -0.2830878982
C       -2.0576809568   -0.0093069058   -2.6793988272
C        0.1311292192    0.4768577939    0.3315064560
C       -0.5848371439   -0.3655454702   -2.7538669589
N        0.5867040063   -1.9469584326    0.4169519994
N        0.5281925932   -2.9864255763   -0.4507889103
O       -2.9611919563   -0.6556071274   -3.1758495318
O       -2.2855311372    1.1184395665   -1.9557458824
S        1.0168283431   -4.8834950111   -3.0438924469
H       -1.6732368456   -4.8483060212   -5.4721972162
H       -1.9357099658   -2.8773012089   -3.7248377598
H        0.4494862247   -6.3273468990   -4.9521882342
H       -0.8809138609    0.8918970883    0.3271426984
H        0.4931054540    0.4274890988    1.3606366932
H        0.7665572983    1.1750289558   -0.2259453443
H       -0.4164175306   -0.8724206124   -3.7053643690
H        0.0047264396    0.5558438219   -2.7312050597
H        0.7198257145   -3.9216328281   -0.1161575001
H       -3.2553146766    1.2353409572   -1.9294460924
25   
Generated by ForceBalance from scan.xyz: Frame 20 of 24
C       -0.9468734985   -4.7878491471   -4.5865733678
C       -1.1147373013   -3.7335557709   -3.6381820203
C        0.2318741693   -5.4704399305   -4.4222396465
C       -0.2224524797   -1.3105175722   -1.6158189662
C        0.1054549323   -2.6633728499   -1.6849490619
C       -0.0537001147   -3.6222666675   -2.7641344056
C        0.1317929024   -0.9103599045   -0.2936541500
C       -2.0175523325    0.1449608000   -2.5769354383
C        0.0275014769    0.4514228379    0.3224720658
C       -0.6302393240   -0.4374012614   -2.7717695936
N        0.6222151433   -1.9396564409    0.4053296003
N        0.6100234344   -2.9852693775   -0.4558499962
O       -3.0579686451   -0.4500271283   -2.7816975732
O       -1.9897714925    1.4267911526   -2.1242756491
S        1.1710806763   -4.8225475000   -3.1173889832
H       -1.6765303427   -5.0375778595   -5.3498074610
H       -1.9937964445   -3.1001206253   -3.5710810908
H        0.6048315571   -6.3137116587   -4.9895188140
H       -1.0168600514    0.7503130885    0.4576253321
H        0.5205035138    0.4537598846    1.2969595283
H        0.4955531940    1.2112430727   -0.3122477046
H       -0.6475099256   -1.0246019744   -3.6910999002
H        0.0840343183    0.3828435678   -2.8942940773
H        0.8485217302   -3.9082769615   -0.1174835806
H       -2.9221309359    1.6958163202   -2.0095494352
25   
Generated by ForceBalance from scan.xyz: Frame 21 of 24
C       -0.8332440463   -4.8042933806   -4.4620766838
C       -1.0863439919   -3.7886848487   -3.4904632186
C        0.4337349326   -5.3225017373   -4.3706121224
C       -0.3069053665   -1.2443285893   -1.4963286247
C        0.0976374005   -2.5742495845   -1.5881609693
C       -0.0057665899   -3.5387955946   -2.6722077510
C        0.0711303742   -0.8347306526   -0.1833098391
C       -2.0339446537    0.4369625366   -2.3049433816
C       -0.0995668222    0.5117006015    0.4502323008
C       -0.7974902234   -0.3832015507   -2.6188252113
N        0.6461454956   -1.8373252192    0.4886111167
N        0.6662376266   -2.8748595334   -0.3806900079
O       -2.7930518490    0.2829727546   -1.3708178258
O       -2.2252357679    1.4055782723   -3.2449476705
S        1.3468118911   -4.5613446797   -3.1098432261
H       -1.5645342694   -5.1461350497   -5.1870993609
H       -2.0399715776   -3.2857662941   -3.3676945514
H        0.8835267623   -6.1054294860   -4.9678672301
H       -1.1585662541    0.7349014169    0.6087919337
H        0.4182317716    0.5367801463    1.4115452351
H        0.3127743416    1.3046120786   -0.1850869796
H       -1.0249600473   -0.9852137004   -3.5043315084
H       -0.0202842646    0.3212318283   -2.9403882304
H        0.9712410992   -3.7847892011   -0.0610761065
H       -3.0459095374    1.8705914339   -2.9919637364
25   
Generated by ForceBalance from scan.xyz: Frame 22 of 24
C       -0.8210423941   -4.9308523785   -4.4782310288
C       -1.1019617091   -3.9351933327   -3.4937244570
C        0.4833179020   -5.3550581140   -4.4468223471
C       -0.3839683970   -1.3260550397   -1.5392779053
C        0.0791249369   -2.6365249278   -1.6436276938
C       -0.0061342462   -3.6064276855   -2.7256754828
C        0.0167587869   -0.8981999674   -0.2380732133
C       -1.9610009063    0.5315354784   -2.2654823987
C       -0.1806940326    0.4387185152    0.4100792284
C       -0.9175253527   -0.4915019154   -2.6684899227
N        0.6533597604   -1.8759902458    0.4163697142
N        0.6923073463   -2.9115212969   -0.4526182487
O       -2.8250092660    0.3857482679   -1.4252928091
O       -1.8522958112    1.6705053874   -3.0045486397
S        1.3955140878   -4.5286553420   -3.2275315400
H       -1.5583368553   -5.3256318881   -5.1694918588
H       -2.0829172492   -3.5021414035   -3.3273125942
H        0.9608022468   -6.1034697425   -5.0664252610
H       -1.2375903563    0.6178802364    0.6270598169
H        0.3858220987    0.4798247517    1.3429653776
H        0.1646369873    1.2515765891   -0.2391811829
H       -1.3839944390   -1.1253155178   -3.4293712315
H       -0.1045551727    0.0380073390   -3.1767196575
H        1.0509321497   -3.8060477229   -0.1451760004
H       -2.5836246271    2.2506290512   -2.7164640459
25   
Generated by ForceBalance from scan.xyz: Frame 23 of 24
C       -0.7781568635   -4.9775318278   -4.5186700207
C       -1.0679803752   -3.9716566707   -3.5474647256
C        0.5391089009   -5.3607342940   -4.5098374798
C       -0.3849242759   -1.3124926089   -1.6311468373
C        0.1209245117   -2.6081284592   -1.7433636938
C        0.0331886532   -3.5942138041   -2.8102821484
C        0.0710677355   -0.8488597738   -0.3610342045
C       -1.8452821733    0.6593369151   -2.2701268106
C       -0.1411613356    0.4804413911    0.3012348592
C       -1.0859062514   -0.5642692987   -2.7404775266
N        0.7879972484   -1.7909434055    0.2651596725
N        0.8185166905   -2.8358068476   -0.5897475996
O       -2.8711546170    0.6445373690   -1.6206491033
O       -1.2557505256    1.8181942483   -2.6714695067
S        1.4519109625   -4.4821798640   -3.3284059268
H       -1.5182192960   -5.4073017324   -5.1856604969
H       -2.0590246854   -3.5670450843   -3.3716047726
H        1.0263082580   -6.1042357579   -5.1277440640
H       -1.2011340034    0.6606729600    0.5031726707
H        0.4033004129    0.4993110121    1.2477616357
H        0.2246338902    1.3019981453   -0.3234241293
H       -1.8241202951   -1.2097368021   -3.2210802532
H       -0.3645154483   -0.2622248516   -3.5054829922
H        1.2403937350   -3.7071025831   -0.2957846801
H       -1.8147361136    2.5414225974   -2.3259226885
25   
Generated by ForceBalance from scan.xyz: Frame 24 of 24
C       -0.6586659293   -4.9208785986   -4.5898532598
C       -0.9569989723   -3.8575663318   -3.6851966292
C        0.5897562463   -5.4530596517   -4.3944886415
C       -0.4516422029   -1.3305920181   -1.6163252457
C        0.1354169605   -2.5929872553   -1.7475882038
C        0.0696061434   -3.5867401262   -2.8041026046
C        0.0381154287   -0.8235796867   -0.3760495754
C       -1.9262196843    0.6433144939   -2.2616198723
C       -0.2384944170    0.4833443768    0.3078076133
C       -1.4200010179   -0.7388466801   -2.6139615243
N        0.8687074356   -1.6991498601    0.2053534585
N        0.9223812555   -2.7498032976   -0.6402205389
O       -2.9711222855    0.8854930994   -1.6923810936
O       -1.0771439428    1.6224430504   -2.6743748207
S        1.4326096495   -4.6463132283   -3.1134825668
H       -1.3458754966   -5.2798758791   -5.3488516933
H       -1.9067664181   -3.3365596553   -3.6680591579
H        1.0682882769   -6.2626553600   -4.9304026945
H       -1.3082163878    0.6292283313    0.4830327338
H        0.2766026594    0.4946870212    1.2706903882
H        0.1229572605    1.3284692563   -0.2861817792
H       -2.3149242472   -1.3624469971   -2.6793722360
H       -0.9571963818   -0.7048623035   -3.6062104954
H        1.4385419777   -3.5762224899   -0.3682203223
H       -1.4814077806    2.4683694426   -2.3998609923
