41

C      1.30813   -2.10313    4.17976
C      1.94869   -1.89059    5.40727
C      0.60996    0.20701    4.16195
C      0.63689   -1.05712    3.54490
C      1.92324   -0.64297    6.02159
C      1.23684    0.42395    5.39266
C     -0.96995    0.75004    1.22462
C      0.75402    3.92643    6.32719
C     -0.18403    4.58635    7.02748
C      0.21117   -0.21734    1.16058
C     -1.63013   -1.22321    2.38562
C     -0.07982   -1.29546    2.22972
C      0.18372    5.79711    7.85177
C     -1.64768    4.22167    7.07652
C      3.65207    0.37899    7.29447
C      0.55140    2.73035    5.45039
N     -1.93753    0.14520    1.98640
O     -1.05384    1.85467    0.70147
O      2.51522   -0.49613    7.25585
O      1.22895    1.61422    6.06301
H      1.34072   -3.08775    3.71950
H      2.47666   -2.69474    5.91224
H      0.08023    1.01970    3.68103
H      1.78429    4.27627    6.38534
H      0.23127   -0.64291    0.15101
H      1.15149    0.31382    1.31489
H     -2.12679   -1.95134    1.72947
H     -1.94052   -1.41608    3.41591
H      0.19755   -2.28835    1.86906
H     -0.38475    6.67762    7.52617
H     -0.06466    5.63521    8.90832
H      1.24895    6.03221    7.78163
H     -1.96917    4.10388    8.11847
H     -2.25794    5.02671    6.64826
H     -1.88681    3.29830    6.54725
H      4.03661    0.32754    8.31519
H      3.36939    1.40817    7.05770
H      4.42474    0.03394    6.59544
H      0.98737    2.91107    4.45865
H     -0.50579    2.48489    5.31325
H     -2.86540    0.54758    2.03630
