50

C      2.07205    2.07978   -4.12711
C      2.43637   -0.55080    0.19421
C      2.27338    2.35443   -5.48005
C      2.61691   -1.93096    0.22840
C      4.76867    4.97471   -5.53564
C      3.71905    3.75294   -3.45018
C      4.49719    4.76445   -6.85034
C      3.92608    4.05518   -4.80164
C      2.77879    2.77340   -3.11607
C      1.15059    0.00618    0.14390
C     -0.00385   -0.80016    0.12429
C      3.19650    3.34991   -5.78130
C      0.18902   -2.19691    0.17725
C      1.48127   -2.72008    0.22028
C      2.59051    2.48573   -1.65558
C     -1.40689    1.31919   -0.09616
C      1.08887    1.52276    0.06078
C     -1.42359   -0.21718    0.10351
C     -0.25251    2.05238    0.58917
C     -2.14133   -0.57049    1.42968
C     -2.24344   -0.78449   -1.08063
C     -0.39231    3.57865    0.36821
N      1.36559    1.98133   -1.29603
O      3.47602    2.71161   -0.82892
O      3.54458    3.78134   -7.03538
O     -0.87902   -3.06092    0.19994
O     -0.20221    1.83831    1.99477
F      1.58555   -4.08710    0.26937
F     -1.43298    4.04730    1.12042
F      0.70523    4.25653    0.74203
F     -0.67081    3.91324   -0.91451
H      1.38782    1.27718   -3.86581
H      3.29789    0.11011    0.20324
H      1.74710    1.81275   -6.25963
H      3.59986   -2.38942    0.27009
H      5.47572    5.68898   -5.13513
H      4.26491    4.25159   -2.65567
H      4.87658    5.21021   -7.75929
H     -1.35562    1.54248   -1.16672
H     -2.36550    1.72713    0.24267
H      1.87928    1.94654    0.68027
H     -3.13698   -0.11180    1.45056
H     -1.57080   -0.21543    2.29026
H     -2.26654   -1.65018    1.52499
H     -3.21082   -0.27210   -1.13673
H     -2.42818   -1.85235   -0.97108
H     -1.72047   -0.62224   -2.02987
H      0.69245    1.77667   -2.02032
H     -0.52807   -3.96703    0.25152
H     -1.05405    2.10660    2.37701
