29   

C        1.8452232854   -3.6859425017   -0.9187652087
C        0.8848364527   -3.5530002160    0.0701337320
C        5.3029959002    1.3381229895    0.0192985471
C        5.9503956367    1.1948141302   -1.1981196061
C        2.7224258142   -2.6349551505   -1.1765843851
C        0.7894938805   -2.3548797514    0.7718727216
C        4.2202165567    0.5032626989    0.2715061070
C        5.5085082735    0.2260835204   -2.0997744838
C        2.6735102619   -1.4065386280   -0.4628430914
C        1.6469081890   -1.2660116751    0.5149330792
C        3.7831421112   -0.4293819808   -0.6924102924
C        1.1423130593    1.1626295162    0.3374939922
C        0.8134455980   -0.0250762629    2.5284657926
N        4.4623654186   -0.5743732244   -1.8512594762
N        1.3596323310   -0.0422222404    1.1606563202
H        1.9255407434   -4.6088070103   -1.4819010587
H        0.2020437827   -4.3679118211    0.2818321686
H        5.6366663314    2.0624684369    0.7550541610
H        6.8020039027    1.8136565746   -1.4506892004
H        3.4797252528   -2.8086429833   -1.9328698429
H       -0.0035354832   -2.2640887918    1.5010487815
H        3.7372699558    0.5600037394    1.2359227921
H        6.0337553518    0.1127452820   -3.0408761316
H        1.4035716418    0.9801925716   -0.7093324233
H        1.7522276039    1.9917918832    0.7082921563
H        0.0872193847    1.4515872382    0.3702713919
H        1.0861653105    0.9080744250    3.0308978305
H        1.2252086707   -0.8526485134    3.1149298793
H       -0.2776320716   -0.1103898030    2.5037248061
29   

C        1.8976236607   -3.7418112766   -0.8424185473
C        0.8965256646   -3.5797019936    0.1043806800
C        5.3461012402    1.2351628848    0.1032202834
C        5.8501503898    1.2613567439   -1.1895325784
C        2.7821042625   -2.6957707365   -1.0971300960
C        0.7706769223   -2.3610931228    0.7696276058
C        4.3027267005    0.3543306733    0.3634790037
C        5.3070203852    0.4139197969   -2.1583256915
C        2.6941234735   -1.4565919458   -0.4191014052
C        1.6369080243   -1.2790541895    0.5145080442
C        3.7783665851   -0.4592762850   -0.6577745888
C        1.2515750957    1.1741087616    0.2981882618
C        0.7385738072    0.0136091722    2.4668576625
N        4.3001609627   -0.4334765302   -1.9010752518
N        1.3606837944   -0.0375518443    1.1330090000
H        1.9998399266   -4.6803250274   -1.3752896157
H        0.2066989617   -4.3896014332    0.3124814555
H        5.7543210814    1.8691150634    0.8834908169
H        6.6644285173    1.9239959074   -1.4539003441
H        3.5734383062   -2.8626984805   -1.8199682196
H       -0.0472889558   -2.2520618803    1.4680807002
H        3.8962793470    0.2792844467    1.3634585551
H        5.7173598265    0.4393672060   -3.1610136076
H        1.4709540373    0.9544859146   -0.7511008046
H        1.9463215885    1.9428251748    0.6490589693
H        0.2310741473    1.5669964690    0.3429044116
H        0.9866919127    0.9575503725    2.9619514838
H        1.1139774066   -0.8007225991    3.0947465669
H       -0.3497885393   -0.0681354163    2.3828660510
29   

C        1.9323779041   -3.8049251489   -0.7679770681
C        0.8973156981   -3.6078659941    0.1380808459
C        5.4024380306    1.1178169879    0.1568465507
C        5.7538769577    1.3157013554   -1.1719147263
C        2.8303328305   -2.7701030880   -1.0234771832
C        0.7522299400   -2.3679877241    0.7630144787
C        4.4013519009    0.1898625222    0.4187230874
C        5.1030867514    0.5900265694   -2.1741263252
C        2.7177184600   -1.5199625320   -0.3814660989
C        1.6331032205   -1.2986721885    0.5061115081
C        3.7813441371   -0.5063832564   -0.6318730151
C        1.3402396595    1.1654793881    0.2415848579
C        0.6977618585    0.0518294557    2.3999475224
N        4.1380335550   -0.3043151350   -1.9143957323
N        1.3701986330   -0.0390571436    1.0932340195
H        2.0462627537   -4.7590719064   -1.2697899398
H        0.1960649457   -4.4080576586    0.3455597073
H        5.8891518008    1.6618546522    0.9596626529
H        6.5276441864    2.0235356165   -1.4408012529
H        3.6454535201   -2.9395811360   -1.7189836842
H       -0.0872958376   -2.2340784747    1.4309358904
H        4.0853093632   -0.0099377973    1.4348402939
H        5.3904633489    0.7549000858   -3.2059381128
H        1.5196043398    0.9134762811   -0.8080592730
H        2.0979886761    1.8834943005    0.5682766906
H        0.3538949846    1.6364919691    0.2962231582
H        0.9386861308    1.0045320355    2.8817266753
H        1.0388054147   -0.7511548672    3.0611332614
H       -0.3874910136   -0.0187201878    2.2757045013
29   

C        1.9521186641   -3.8358071101   -0.6827136206
C        0.8841136422   -3.5979699154    0.1761817804
C        5.5059613768    0.9887176844    0.1974812583
C        5.6985272275    1.3633758615   -1.1261354865
C        2.8682999300   -2.8171749051   -0.9402863512
C        0.7262871386   -2.3357131491    0.7540141446
C        4.5333408810    0.0287053600    0.4511352923
C        4.9220548365    0.7770831970   -2.1306922400
C        2.7372984111   -1.5498919047   -0.3437834735
C        1.6264035381   -1.2835485427    0.4945676865
C        3.7936252875   -0.5290809385   -0.6023128492
C        1.4093180283    1.1837246415    0.1769343191
C        0.6682225642    0.1254377341    2.3322040166
N        3.9851715762   -0.1488208023   -1.8783368177
N        1.3749869642   -0.0066500431    1.0475495118
H        2.0744292539   -4.8074378698   -1.1476375476
H        0.1678891479   -4.3847226795    0.3839136686
H        6.0875960999    1.4268895535    1.0019175296
H        6.4417620147    2.1053173245   -1.3891543168
H        3.7055525173   -3.0062493647   -1.6034740395
H       -0.1341893074   -2.1717678944    1.3877685280
H        4.3247565282   -0.2994040755    1.4615737114
H        5.0829523006    1.0826801104   -3.1578816237
H        1.5346181527    0.9010265899   -0.8726694101
H        2.2278381622    1.8479484873    0.4686614332
H        0.4627005096    1.7278858418    0.2505616135
H        0.9116933041    1.0850627914    2.7987779121
H        0.9779012146   -0.6671412961    3.0208150047
H       -0.4141758155    0.0693564883    2.1793536685
29   

C        1.9991514113   -3.8552329559   -0.6173066319
C        0.8983973511   -3.5981278355    0.1942954607
C        5.6666834763    0.8111548906    0.1971944622
C        5.6939051031    1.3925562689   -1.0640869799
C        2.9155260929   -2.8370061272   -0.8771660856
C        0.7113022540   -2.3192674067    0.7259605877
C        4.6976418650   -0.1580435300    0.4294025648
C        4.7636760429    0.9938578512   -2.0292311573
C        2.7479762081   -1.5525159347   -0.3314225761
C        1.6123390347   -1.2690391655    0.4639839547
C        3.8007642451   -0.5217667704   -0.5846063487
C        1.3735859352    1.1850483918    0.0906189312
C        0.6378869091    0.1680098964    2.2684200580
N        3.8312553497    0.0582504442   -1.7972424269
N        1.3486094751    0.0160024198    0.9884329504
H        2.1456802216   -4.8411343295   -1.0436012265
H        0.1814220611   -4.3838818281    0.4032383741
H        6.3695525980    1.1015113119    0.9712149883
H        6.4252951459    2.1526033593   -1.3078842315
H        3.7775865343   -3.0387080781   -1.5035232434
H       -0.1688765589   -2.1410941515    1.3281632202
H        4.6138633158   -0.6417797810    1.3940970485
H        4.7959913156    1.4598596246   -3.0070748735
H        1.4187982822    0.8718117117   -0.9566788534
H        2.2334571775    1.8226578304    0.3146928358
H        0.4546592886    1.7675136934    0.2082166036
H        0.8758244100    1.1371366239    2.7179227597
H        0.9498867881   -0.6104785571    2.9718927006
H       -0.4438227955    0.1036419393    2.1142292593
29   

C        2.0277115502   -3.8399206298   -0.5268827611
C        0.8937516725   -3.5635986677    0.2308343415
C        5.8732923532    0.5715718760    0.1201009094
C        5.7549460579    1.3688908739   -1.0109119353
C        2.9431821816   -2.8220562333   -0.7921198217
C        0.6772198095   -2.2681606497    0.7079520725
C        4.8744631191   -0.3696669366    0.3415083774
C        4.6598668952    1.1994908017   -1.8636903721
C        2.7384016235   -1.5168157545   -0.3114322746
C        1.5784643829   -1.2201666268    0.4409067150
C        3.8010539589   -0.4901630182   -0.5520688742
C        1.2019758144    1.1923467784   -0.0190347244
C        0.6259404600    0.2381517298    2.2327677392
N        3.7004877330    0.2889410562   -1.6428202385
N        1.2929231852    0.0708944601    0.9317301029
H        2.2007945635   -4.8406453269   -0.9061327127
H        0.1766885440   -4.3482294062    0.4436867548
H        6.7087949306    0.6782242341    0.8042078999
H        6.4999939922    2.1203089960   -1.2395364015
H        3.8320682600   -3.0408688551   -1.3734632037
H       -0.2223960097   -2.0736302238    1.2756868867
H        4.9052936777   -1.0180958193    1.2075354927
H        4.5817338367    1.8296011018   -2.7418793645
H        1.2106401407    0.8287052672   -1.0509466231
H        2.0331034725    1.8878147775    0.1275988502
H        0.2577226692    1.7273698298    0.1208441503
H        0.8772595765    1.2136930228    2.6605176582
H        0.9627736867   -0.5309793065    2.9350546623
H       -0.4602110859    0.1687680732    2.1166399533
29   

C        2.0655836508   -3.8299075761   -0.4288452466
C        0.8907956188   -3.5332584081    0.2546272982
C        6.0386794096    0.3698761046   -0.0107284390
C        5.8141100774    1.3436557195   -0.9746672594
C        2.9872170869   -2.8155104676   -0.6864010788
C        0.6443294845   -2.2226330289    0.6703159164
C        5.0198560363   -0.5489546522    0.2140198718
C        4.6004175772    1.3608105225   -1.6681903161
C        2.7485589061   -1.4906342462   -0.2763564969
C        1.5531230807   -1.1799265895    0.4123991245
C        3.8190005471   -0.4725845785   -0.5076524980
C        0.9829090247    1.1656677475   -0.1352992541
C        0.6352856613    0.2978678022    2.1948571355
N        3.6235733801    0.4697050989   -1.4463316166
N        1.2369795909    0.1153469784    0.8648403492
H        2.2650689451   -4.8437161608   -0.7569871512
H        0.1677162057   -4.3142396174    0.4604448055
H        6.9693338363    0.3273423014    0.5456047204
H        6.5674443766    2.0889532556   -1.1959364456
H        3.9059803168   -3.0532483276   -1.2110617947
H       -0.2810139094   -2.0086971207    1.1879626171
H        5.1345152577   -1.3299432236    0.9544430845
H        4.4411158269    2.1253294760   -2.4195037362
H        1.0380499620    0.7588826413   -1.1497649378
H        1.7117032213    1.9746862212   -0.0327098449
H       -0.0247853128    1.5722429406   -0.0059974679
H        0.9103174037    1.2769713313    2.5990487518
H        1.0023411530   -0.4662072453    2.8874648663
H       -0.4553909235    0.2293130237    2.1331662576
29   

C        0.8204678770   -2.5556806792   -2.1783462665
C       -0.1010282055   -2.6036774792   -1.1392838533
C        5.8823535391    0.0032284844   -1.0072330101
C        5.6896692322    1.3660165571   -0.8181642424
C        1.9867187071   -1.8081045485   -2.0286313506
C        0.1595979887   -1.9205233389    0.0504596941
C        4.7517995684   -0.8062006703   -1.0042051394
C        4.3948340564    1.8642428436   -0.6404735409
C        2.2570034697   -1.0996067603   -0.8417958165
C        1.3395936364   -1.1733106599    0.2405221439
C        3.4803988700   -0.2467082653   -0.8034165243
C        0.4460943075   -0.1260530964    2.3380884400
C        2.9044939653   -0.6173285927    2.1362457484
N        3.3098066464    1.0782095624   -0.6385770791
N        1.5704318678   -0.5963330247    1.5128819016
H        0.6273347558   -3.0861593646   -3.1038430327
H       -1.0143652507   -3.1774809748   -1.2472575569
H        6.8739484153   -0.4127609232   -1.1534189581
H        6.5297110277    2.0489472196   -0.8109985779
H        2.6838949136   -1.7505878571   -2.8570770556
H       -0.5617823467   -2.0070311640    0.8510440433
H        4.8386648748   -1.8752949001   -1.1487683389
H        4.2611090703    2.9304018048   -0.4998393998
H       -0.3372160903    0.3039977536    1.7057997837
H        0.7826503365    0.6559724853    3.0258335467
H        0.0293519847   -0.9542219657    2.9197750943
H        3.3401369849    0.3859303118    2.1431677713
H        3.5755607298   -1.3001957190    1.6077353272
H        2.8267751734   -0.9813122420    3.1652608997
29   

C        0.9611668326   -2.6128877412   -2.1172831623
C       -0.0102821734   -2.6103510606   -1.1255573150
C        5.9462028923    0.0614462820   -1.1272120153
C        5.7670957583    1.3805232869   -0.7321558126
C        2.1302638900   -1.8772436203   -1.9371131070
C        0.2040965473   -1.8910181678    0.0506737377
C        4.8262023289   -0.7627141282   -1.1259353023
C        4.4956215410    1.8225948610   -0.3555406256
C        2.3613215605   -1.1280225333   -0.7636400196
C        1.3849277220   -1.1540145169    0.2749929348
C        3.5733740465   -0.2628370353   -0.7303870079
C        0.4083676293   -0.0627560057    2.3171793126
C        2.8683034253   -0.5756915781    2.2299597448
N        3.4211507261    1.0226625513   -0.3550344380
N        1.5615120229   -0.5593024168    1.5494464224
H        0.8031420799   -3.1707406793   -3.0333276588
H       -0.9270655387   -3.1732349413   -1.2588999785
H        6.9206230600   -0.3114191826   -1.4257934734
H        6.5998910248    2.0720591640   -0.7139077702
H        2.8549540819   -1.8571911249   -2.7430765379
H       -0.5564921491   -1.9429245792    0.8171563978
H        4.9141600954   -1.8001095646   -1.4209036736
H        4.3713309724    2.8553169612   -0.0516027333
H       -0.3489724306    0.3516976109    1.6443007225
H        0.7221134166    0.7372861946    2.9949222382
H       -0.0328646476   -0.8731754262    2.9058319372
H        3.3096057017    0.4253677966    2.2385621085
H        3.5570219988   -1.2704679901    1.7402411742
H        2.7460427139   -0.9154095226    3.2629885595
29   

C        1.0242146497   -2.7125383933   -2.0523547949
C        0.0181865622   -2.6469571819   -1.1005575799
C        5.9337162587    0.1223499936   -1.2986084408
C        5.7821676787    1.3842220627   -0.7424019789
C        2.1987703056   -1.9877360125   -1.8652193863
C        0.2047793486   -1.8774246831    0.0462713032
C        4.8281771880   -0.7211890994   -1.2815601961
C        4.5522941188    1.7503276220   -0.1915577415
C        2.4117910602   -1.1865116099   -0.7181655487
C        1.3902951325   -1.1512207640    0.2807733150
C        3.6066856804   -0.2966030312   -0.7211571715
C        0.3676231171    0.0320404221    2.2495966297
C        2.7948122182   -0.6251076723    2.2995851134
N        3.4927001344    0.9315758963   -0.1771672848
N        1.5305691072   -0.5334774434    1.5479537941
H        0.8872139740   -3.3075273420   -2.9482264522
H       -0.9038329798   -3.1994259542   -1.2412307522
H        6.8785013850   -0.1950753185   -1.7278842443
H        6.6052357959    2.0873588523   -0.7277744785
H        2.9318733123   -2.0158374632   -2.6622106374
H       -0.5822854670   -1.8834298548    0.7873523144
H        4.9173293470   -1.7186850596   -1.6896139645
H        4.4484711862    2.7376680068    0.2428411575
H       -0.3479043007    0.4458162099    1.5321241712
H        0.6844904849    0.8456216688    2.9094516039
H       -0.1251501150   -0.7397037961    2.8493204892
H        3.2543564696    0.3629783550    2.3981256188
H        3.4996556722   -1.2986008847    1.8029480169
H        2.6058531714   -1.0276523723    3.2993735442
29   

C        1.0751968217   -2.7985033848   -1.9570082798
C        0.0433865888   -2.6735618397   -1.0428384890
C        5.8975175056    0.2212734125   -1.4557996061
C        5.7994423717    1.4059686793   -0.7440192596
C        2.2529186828   -2.0782119081   -1.7736044401
C        0.2086660712   -1.8505321374    0.0668467014
C        4.8055832218   -0.6398680359   -1.4232639467
C        4.6357237060    1.6775904992   -0.0253984066
C        2.4550287211   -1.2195321700   -0.6608442599
C        1.3962359170   -1.1277420378    0.3014249714
C        3.6355797977   -0.3075149943   -0.7014551603
C        0.3299903238    0.1644690365    2.1773461341
C        2.7006414003   -0.6503445337    2.3889597507
N        3.5903264434    0.8419674762    0.0017265140
N        1.4978831380   -0.4777441865    1.5550223756
H        0.9552825301   -3.4349108902   -2.8265246522
H       -0.8816378071   -3.2211673517   -1.1828684997
H        6.7948841305   -0.0279376688   -2.0128170693
H        6.6148218809    2.1180346113   -0.7330245595
H        2.9844272296   -2.1634532277   -2.5655504945
H       -0.5984048368   -1.8125695790    0.7851784129
H        4.8884077669   -1.5801563493   -1.9476362628
H        4.5727355723    2.6026216934    0.5355445983
H       -0.3392765217    0.5669699281    1.4105914488
H        0.6513877152    0.9973136575    2.8103267624
H       -0.2167795975   -0.5581616535    2.7913851047
H        3.1805327511    0.3161112178    2.5710972438
H        3.4217768262   -1.3159227211    1.9048479589
H        2.4286384541   -1.0977125417    3.3497060771
29   

C        1.1245077085   -2.8972433114   -1.8586665693
C        0.0825583278   -2.7387731997   -0.9648154950
C        5.8006965077    0.3909853746   -1.6592767349
C        5.8307639560    1.4145393845   -0.7290114089
C        2.2945541128   -2.1589674114   -1.6989524611
C        0.2334139099   -1.8663625584    0.1056963834
C        4.7151616008   -0.4789829981   -1.6275947047
C        4.7932510658    1.5245924306    0.1924906899
C        2.4829041409   -1.2337196012   -0.6328496113
C        1.4110289171   -1.1211462592    0.3171637431
C        3.6679133062   -0.3207191881   -0.6821049408
C        0.3025002690    0.3176527484    2.0512808649
C        2.5593211438   -0.7047254435    2.4913646246
N        3.7549422636    0.6810903444    0.2162149382
N        1.4684917529   -0.4203818040    1.5427627534
H        1.0221335469   -3.5818160176   -2.6931813465
H       -0.8358853287   -3.3016622166   -1.0864682916
H        6.5965846191    0.2706564737   -2.3870997656
H        6.6475705317    2.1246419349   -0.7065049680
H        3.0282636825   -2.3175678103   -2.4737208363
H       -0.5779233311   -1.8029674224    0.8177844494
H        4.7259605394   -1.2746461750   -2.3534584274
H        4.8257707436    2.3251662180    0.9220870477
H       -0.3254594949    0.6602339551    1.2229420057
H        0.6310920578    1.1989949085    2.6104271040
H       -0.2921504965   -0.3227905087    2.7104508740
H        3.0632571383    0.2230049327    2.7795942345
H        3.2983635315   -1.3774930411    2.0450807034
H        2.1610382593   -1.1888354102    3.3880583263
29   

C        1.2185384163   -2.9899741384   -1.7888562628
C        0.2062774597   -2.8682820370   -0.8540213357
C        5.6132454913    0.6394932339   -1.9216758100
C        5.9287289146    1.3395600955   -0.7703903532
C        2.3506687344   -2.1840671618   -1.6920658468
C        0.3494852177   -1.9577445681    0.1867603114
C        4.5030851503   -0.1978871198   -1.8817856329
C        5.1296858365    1.1841471010    0.3597565581
C        2.5151548490   -1.2122444079   -0.6666934756
C        1.4848189032   -1.1357076651    0.3225339213
C        3.7300446921   -0.3439813381   -0.7017562832
C        0.3314569965    0.5094969888    1.8001263907
C        2.4075629980   -0.6805066170    2.5713587031
N        4.0663923503    0.3719312448    0.3884766887
N        1.4994771147   -0.3203788369    1.4698540911
H        1.1311695962   -3.7129849365   -2.5920500040
H       -0.6803280199   -3.4885368519   -0.9203427985
H        6.2026408410    0.7498923975   -2.8261054990
H        6.7780054565    2.0101459240   -0.7402895928
H        3.1072410507   -2.3569971447   -2.4440593345
H       -0.4344724989   -1.9046432990    0.9304631253
H        4.2417659550   -0.7024313391   -2.7985045727
H        5.3775624607    1.7427581109    1.2546192669
H       -0.2640611933    0.7082595310    0.9034901338
H        0.6584811056    1.4700803435    2.2093861304
H       -0.2992678321    0.0004071229    2.5358766641
H        2.9351938130    0.2079225677    2.9315968649
H        3.1508463657   -1.4111359948    2.2365891056
H        1.8430980482   -1.1245391051    3.3968128070
29   

C        1.2679288480   -3.0448630000   -1.7394479248
C        0.2713158396   -2.9560985751   -0.7796430550
C        5.4248363723    0.8461538009   -1.9373900193
C        5.9274892706    1.2956899236   -0.7266361132
C        2.3735077247   -2.1993130743   -1.6668900828
C        0.3965651653   -2.0283024261    0.2516267549
C        4.3101930428    0.0154988080   -1.8983442201
C        5.3041982339    0.9073235430    0.4596578307
C        2.5180303704   -1.2332908567   -0.6401466605
C        1.5030560572   -1.1656709845    0.3552134321
C        3.7231937656   -0.3583729363   -0.6691720454
C        0.3249215047    0.5796332115    1.6708798026
C        2.3093789914   -0.6316405919    2.6227200166
N        4.2338275198    0.1031775503    0.4870872721
N        1.4955301728   -0.2812276492    1.4473158427
H        1.1894902756   -3.7726125283   -2.5392204840
H       -0.5931292257   -3.6086665938   -0.8249768741
H        5.8766316183    1.1392842727   -2.8794353607
H        6.7906581277    1.9479726896   -0.6902294351
H        3.1386988666   -2.3211964252   -2.4235667510
H       -0.3788763403   -1.9817546780    1.0048838008
H        3.8801043175   -0.3179507848   -2.8321722383
H        5.7024030672    1.2693234178    1.4002236940
H       -0.2276990591    0.7249184488    0.7372114787
H        0.6458698131    1.5614867722    2.0316333656
H       -0.3453565016    0.1259719606    2.4078794665
H        2.8649677538    0.2439756599    2.9716777357
H        3.0273167720   -1.4200050289    2.3748754740
H        1.6692644873   -0.9992604892    3.4304451788
29   

C        1.3276539476   -3.1265608636   -1.6684374562
C        0.3213925673   -3.0288392974   -0.7159204285
C        5.2665341346    1.0029323894   -1.9004759256
C        5.9152768862    1.2700691082   -0.7036368617
C        2.4215731132   -2.2641603872   -1.6068046256
C        0.4208954643   -2.0707812749    0.2929780222
C        4.1583415410    0.1646055088   -1.8514543048
C        5.4403757660    0.6975752572    0.4786816623
C        2.5402204025   -1.2863573189   -0.5942492660
C        1.5156377166   -1.1928646973    0.3818408038
C        3.7219663395   -0.3814695332   -0.6292212033
C        0.3147718034    0.5972577745    1.6075825056
C        2.3034729064   -0.5494120429    2.6253319937
N        4.3741048070   -0.1126235608    0.5161220552
N        1.4987064743   -0.2557628314    1.4282812172
H        1.2637268951   -3.8710585000   -2.4539189009
H       -0.5335027568   -3.6943660551   -0.7530583791
H        5.6059930354    1.4351119744   -2.8361267336
H        6.7822371572    1.9176710950   -0.6742813385
H        3.1991942938   -2.3655444666   -2.3552088281
H       -0.3640995569   -2.0099665706    1.0351997147
H        3.6115845232   -0.0564791761   -2.7583786428
H        5.9566446521    0.9146839266    1.4063776128
H       -0.2156183145    0.7195224344    0.6578430540
H        0.6176702971    1.5891271542    1.9565386914
H       -0.3689359853    0.1517261250    2.3371121871
H        2.8951126674    0.3265087934    2.9074349875
H        2.9860712838   -1.3845426767    2.4383608481
H        1.6526372809   -0.8295745506    3.4592130380
29   

C        1.3641929547   -3.1954182623   -1.6151532729
C        0.3261938427   -3.0600918444   -0.6998193459
C        5.1287156200    1.1360097920   -1.8149923668
C        5.9125744592    1.2292858266   -0.6732062806
C        2.4617547969   -2.3379217225   -1.5440612041
C        0.3962934767   -2.0691189444    0.2811588676
C        4.0227782691    0.2952331850   -1.7604499525
C        5.5693172719    0.4880544169    0.4608969134
C        2.5493869017   -1.3370278212   -0.5557260853
C        1.4956787001   -1.1978159683    0.3785327543
C        3.7216987453   -0.4154451732   -0.5864324380
C        0.2632204544    0.5977926070    1.5701379900
C        2.3254984300   -0.4271248700    2.5694320933
N        4.5030828741   -0.3228282442    0.5039589801
N        1.4718342038   -0.2199657301    1.3880401569
H        1.3202983381   -3.9625349624   -2.3799489275
H       -0.5316333776   -3.7213086636   -0.7452818845
H        5.3666815965    1.6977640849   -2.7123433412
H        6.7859570899    1.8684901232   -0.6504593997
H        3.2643424683   -2.4505334628   -2.2644259238
H       -0.4137653867   -1.9805475553    0.9928276095
H        3.3730332207    0.1895182419   -2.6193574519
H        6.1924780535    0.5688439064    1.3437648634
H       -0.2718131358    0.7047240324    0.6211494600
H        0.5375473139    1.5986113603    1.9173942662
H       -0.4049737199    0.1335493958    2.3023339146
H        2.9558966020    0.4502346391    2.7407507771
H        2.9688002721   -1.3026109286    2.4360446210
H        1.7075268412   -0.6050039923    3.4548387556
29   

C        1.4039617549   -3.2642754697   -1.5760965715
C        0.3264963102   -3.0796402444   -0.7156740634
C        4.9992165444    1.2815312109   -1.6908811835
C        5.9146696018    1.1988236882   -0.6502449714
C        2.5073332540   -2.4157360377   -1.4898751169
C        0.3635830530   -2.0508558643    0.2284985881
C        3.8977449861    0.4349975615   -1.6372236791
C        5.6995923033    0.2863021384    0.3867600380
C        2.5583084555   -1.3783464323   -0.5403298445
C        1.4700021642   -1.1892996477    0.3425913224
C        3.7321844934   -0.4523649052   -0.5630165356
C        0.1926967745    0.5833175330    1.5378445465
C        2.3834242350   -0.2471885977    2.4406829815
N        4.6351801115   -0.5277637429    0.4298529536
N        1.4344398365   -0.1740773368    1.3172646212
H        1.3852529205   -4.0609997551   -2.3110486591
H       -0.5363544074   -3.7332378542   -0.7743240179
H        5.1356592772    1.9781897933   -2.5115450146
H        6.7927704194    1.8317265450   -0.6326149769
H        3.3407486294   -2.5574310065   -2.1690285323
H       -0.4772850535   -1.9315605950    0.8983676062
H        3.1480827977    0.4547432127   -2.4175629760
H        6.4244595842    0.2315438676    1.1904406005
H       -0.3670772886    0.6786898116    0.6019980044
H        0.4272442806    1.5916380343    1.8927139142
H       -0.4352523885    0.0794521138    2.2793805317
H        3.0370636826    0.6296577378    2.4457973400
H        2.9962885808   -1.1514422652    2.3746895797
H        1.8400647877   -0.2952498518    3.3893143930
29   

C        1.4309652941   -3.3494776981   -1.5145591669
C        0.3202466354   -3.1137593068   -0.7101068832
C        4.8668683238    1.4334949865   -1.4676818956
C        5.9028796028    1.1661446844   -0.5821367720
C        2.5372175056   -2.5052341760   -1.4251361247
C        0.3284615037   -2.0421827730    0.1867498907
C        3.7700533727    0.5798041513   -1.4389823345
C        5.8049734069    0.0742619442    0.2858596791
C        2.5532663036   -1.4205297239   -0.5308131465
C        1.4388224997   -1.1851560542    0.3065367206
C        3.7324648196   -0.4984879779   -0.5440002479
C        0.1293506996    0.5682514048    1.5127256609
C        2.4365209113   -0.0602527174    2.2845376877
N        4.7432194702   -0.7445978075    0.3071445598
N        1.3947135829   -0.1339502465    1.2457648930
H        1.4358048843   -4.1820117774   -2.2088936763
H       -0.5452160302   -3.7635010077   -0.7728597891
H        4.9092500534    2.2737307578   -2.1529924581
H        6.7847759305    1.7934765257   -0.5555125698
H        3.3981834695   -2.6833569828   -2.0599289602
H       -0.5377737745   -1.8927734919    0.8166717720
H        2.9274140802    0.7365842577   -2.0998802504
H        6.6216046099   -0.1207958487    0.9710050464
H       -0.4582956699    0.6567030177    0.5934423731
H        0.3315678551    1.5798882163    1.8781236609
H       -0.4559591878    0.0281891751    2.2635617358
H        3.0791010303    0.8096216268    2.1221687451
H        3.0478353824   -0.9676916336    2.2869320196
H        1.9752844715    0.0142442192    3.2740531508
29   

C        1.4812520562   -3.4271055691   -1.4971661597
C        0.3422096257   -3.1545380344   -0.7456835147
C        4.7923000121    1.5556401168   -1.1829021355
C        5.9258304634    1.1182126182   -0.5095725398
C        2.5857938513   -2.5812709586   -1.4043531203
C        0.3217873725   -2.0480460815    0.1077674680
C        3.6942679659    0.7033639387   -1.1991560313
C        5.9184359921   -0.1322512728    0.1165780075
C        2.5690204850   -1.4542970481   -0.5644046727
C        1.4305544742   -1.1887652107    0.2332051341
C        3.7544909867   -0.5434834537   -0.5614832982
C        0.0903206137    0.5489693273    1.4393261519
C        2.4607431273    0.0688822989    2.1241979431
N        4.8546742695   -0.9487047579    0.0968684957
N        1.3722041385   -0.1126552239    1.1467091671
H        1.5101304245   -4.2900075192   -2.1527319668
H       -0.5219981884   -3.8055452885   -0.8124129676
H        4.7618324483    2.5227191816   -1.6740917531
H        6.8141534349    1.7351651261   -0.4617054240
H        3.4710715445   -2.7889612995   -1.9953727567
H       -0.5656083525   -1.8785064477    0.7018178328
H        2.7755606502    0.9882555447   -1.6956140931
H        6.8095045173   -0.4571266161    0.6408256423
H       -0.5154892426    0.6240408824    0.5306895800
H        0.2666179609    1.5648959983    1.8063215734
H       -0.4640888458   -0.0119661345    2.1982698966
H        3.0448266836    0.9624639578    1.8865276606
H        3.1222259627   -0.8024641169    2.1378855273
H        2.0464496889    0.1685997307    3.1321351244
29   

C        1.5072460734   -3.4754029426   -1.4355063532
C        0.3465820619   -3.1716469371   -0.7316042382
C        4.7624618144    1.6086906822   -0.9503005641
C        5.9623647411    1.0600953707   -0.5159430602
C        2.6103103239   -2.6280800674   -1.3425162423
C        0.3043814894   -2.0345085378    0.0790739101
C        3.6503845777    0.7749936515   -0.9633970521
C        6.0051504218   -0.2786146368   -0.1137102104
C        2.5725415070   -1.4650597727   -0.5519680131
C        1.4116272999   -1.1728724273    0.2061564846
C        3.7603927920   -0.5630052642   -0.5562964852
C        0.0469805133    0.5747547240    1.3740189372
C        2.4195143148    0.1379833145    2.0773596161
N        4.9277628051   -1.0771936326   -0.1290380705
N        1.3371424984   -0.0787038597    1.0987540401
H        1.5546462899   -4.3635993929   -2.0552167977
H       -0.5167760486   -3.8236568031   -0.7994694176
H        4.6928443065    2.6448407302   -1.2648768174
H        6.8647705935    1.6573127246   -0.4835975099
H        3.5119774591   -2.8613246338   -1.8985313382
H       -0.5992370235   -1.8458690605    0.6419528712
H        2.6823666031    1.1426635674   -1.2794875583
H        6.9486036909   -0.6902762601    0.2251509009
H       -0.5544683581    0.6304629406    0.4610993780
H        0.2109489514    1.5976722534    1.7270132607
H       -0.5060874884    0.0197081513    2.1383047075
H        2.9407633979    1.0769243257    1.8700824786
H        3.1411143690   -0.6842735349    2.0556202108
H        2.0060521952    0.1736737666    3.0899749458
29   

C        1.5888516456   -3.5243918468   -1.3927983777
C        0.3970825646   -3.2066379723   -0.7526322660
C        4.7872718824    1.6269807000   -0.7861015013
C        6.0203853582    1.0231803360   -0.5781511172
C        2.6832741179   -2.6695528431   -1.2746198788
C        0.3163171405   -2.0486411466    0.0228445697
C        3.6652622779    0.8069716792   -0.7623589487
C        6.0861936281   -0.3559650885   -0.3584639240
C        2.6133393498   -1.4811213530   -0.5192632552
C        1.4142511182   -1.1789612701    0.1763363394
C        3.7949077585   -0.5726548544   -0.5330450299
C       -0.0048871197    0.5728188068    1.2729743347
C        2.3312565827    0.1372269153    2.0880127142
N        4.9995270539   -1.1416617424   -0.3372071845
N        1.2978747157   -0.0784533161    1.0571315555
H        1.6673433425   -4.4282992405   -1.9860695833
H       -0.4603902199   -3.8638640433   -0.8415256334
H        4.7004829222    2.6940948524   -0.9624945172
H        6.9317554948    1.6074573445   -0.5865767809
H        3.6036350005   -2.9174209177   -1.7926618421
H       -0.6117684273   -1.8514213751    0.5411265334
H        2.6764199642    1.2187273455   -0.9202966936
H        7.0564379752   -0.8118519333   -0.1997157283
H       -0.5701511490    0.6148689241    0.3365075618
H        0.1410036042    1.6004569223    1.6200682861
H       -0.5856776871    0.0244118968    2.0213849013
H        2.8098838027    1.1112626182    1.9515145190
H        3.0976489098   -0.6429452853    2.0503956582
H        1.8788902361    0.0972873736    3.0837464603
29   

C        1.6298255330   -3.5472800854   -1.3071591324
C        0.4174631913   -3.2092297276   -0.7233936950
C        4.8332638535    1.6366266071   -0.6564600697
C        6.0670054607    1.0015560607   -0.6803200175
C        2.7221847738   -2.6928292465   -1.1728787210
C        0.3149709626   -2.0310646013    0.0147142693
C        3.7030427627    0.8320038416   -0.5703259047
C        6.1253966663   -0.3932090536   -0.6260031605
C        2.6407901632   -1.4782233734   -0.4509408423
C        1.4099696900   -1.1605062222    0.1859902477
C        3.8225811650   -0.5678858160   -0.4941455884
C       -0.0449975141    0.6099494272    1.2047929300
C        2.2379048072    0.1412470258    2.1437566001
N        5.0313623952   -1.1640240481   -0.5426286053
N        1.2600257519   -0.0562191668    1.0567090360
H        1.7265668700   -4.4660593935   -1.8743407546
H       -0.4390395689   -3.8656345749   -0.8265327756
H        4.7510428175    2.7171506336   -0.7118522251
H        6.9837357510    1.5733064960   -0.7491405457
H        3.6478818674   -2.9686144835   -1.6664349275
H       -0.6304782019   -1.8192866723    0.4943687369
H        2.7186975699    1.2812452957   -0.5765111663
H        7.0957261748   -0.8749215713   -0.6547061454
H       -0.5708527009    0.6372238883    0.2450834978
H        0.0953656983    1.6431406463    1.5372327583
H       -0.6613929827    0.0812026117    1.9387933428
H        2.6805121600    1.1397252006    2.0818070564
H        3.0395154409   -0.6021008805    2.0968091996
H        1.7444862717    0.0282440803    3.1140932388
29   

C        1.6739354146   -3.5814767214   -1.2154307328
C        0.4449273120   -3.2189527213   -0.6899607513
C        4.9048736560    1.6314225053   -0.5341878399
C        6.1078253169    0.9917777996   -0.7900619170
C        2.7662410341   -2.7290748454   -1.0712112037
C        0.3271881524   -2.0187358735    0.0048145795
C        3.7742362451    0.8355657865   -0.3883044798
C        6.1342123147   -0.3984757516   -0.9046640174
C        2.6785006656   -1.4835039619   -0.3918546848
C        1.4210212341   -1.1488034358    0.1879897535
C        3.8612798843   -0.5702685624   -0.4669861187
C       -0.0577084673    0.6535355345    1.1119531896
C        2.1410575695    0.1150885876    2.2050959045
N        5.0405885380   -1.1601828051   -0.7607882054
N        1.2385900842   -0.0429819783    1.0487959475
H        1.7848610076   -4.5180879234   -1.7499458165
H       -0.4120133758   -3.8731962829   -0.8027405246
H        4.8429639032    2.7125542711   -0.4658447153
H        7.0219828452    1.5576813240   -0.9168057441
H        3.6933315177   -3.0440217019   -1.5369960528
H       -0.6321101044   -1.7889658065    0.4473034546
H        2.8182302408    1.3171956314   -0.2447151965
H        7.0779016737   -0.8850437604   -1.1216952148
H       -0.5367984566    0.6595771609    0.1276741562
H        0.0886366240    1.6939065265    1.4182149323
H       -0.7200431422    0.1605841123    1.8307353583
H        2.5423204585    1.1323858844    2.2381851208
H        2.9786314759   -0.5871773950    2.1534270080
H        1.5969444809   -0.0856176951    3.1332375386
29   

C        1.7759618202   -3.6107622424   -1.0068552866
C        0.8435592451   -3.4940552919    0.0081142356
C        5.2567074468    1.4652705095   -0.0953267515
C        6.0568918324    1.1373290925   -1.1762931878
C        2.6686677931   -2.5695434146   -1.2501785740
C        0.7900190559   -2.3181157698    0.7475285286
C        4.1396353701    0.6720679477    0.1438488805
C        5.7265953750    0.0322360576   -1.9572725210
C        2.6706005399   -1.3604149045   -0.4942375382
C        1.6638153730   -1.2388202536    0.5075315017
C        3.8096242397   -0.4083300550   -0.7081950655
C        0.9819328458    1.1337898082    0.3878058428
C        0.9658893535   -0.0611521081    2.6018849024
N        4.6464128405   -0.7251895002   -1.7228922329
N        1.3816632718   -0.0378771247    1.1890074687
H        1.8237532322   -4.5149181708   -1.6030870449
H        0.1491031154   -4.3016973913    0.2094437074
H        5.5009938813    2.2995814105    0.5539749464
H        6.9415733884    1.7157962876   -1.4100525285
H        3.3941006206   -2.7467626173   -2.0358376134
H        0.0141328239   -2.2308347680    1.4956735960
H        3.5654740882    0.8959079303    1.0266424594
H        6.3702595994   -0.2285630738   -2.7891729468
H        1.3217079087    1.0358235873   -0.6479233835
H        1.4189701105    2.0458157659    0.8056428122
H       -0.1083770726    1.2286205283    0.3811620449
H        1.3142371820    0.8425681001    3.1111433276
H        1.4014151417   -0.9244413284    3.1151921060
H       -0.1248906264   -0.1162208847    2.6764422775
