18   
Generated by ForceBalance from scan.xyz: Frame 1 of 24
C        4.6928669980    1.3644064866    0.7828010954
C        5.8411617995    1.1290992233    0.0197561724
C        3.5614900434    0.5802847242    0.5629874468
C        5.8506811011    0.1187362643   -0.9412552528
C        3.5461224946   -0.4583035253   -0.3846265715
C        4.7178557202   -0.6834991528   -1.1459655760
C        2.3344217050   -1.3280912652   -0.5242690262
C        0.9680272644   -0.7318585380   -0.1966151270
O        2.4151670401   -2.5029068092   -0.8541393198
O        4.7132071437   -1.6585763196   -2.0977388461
H        4.6800140031    2.1479985694    1.5344129377
H        6.7317115503    1.7342980981    0.1675925255
H        2.6728885213    0.7601908757    1.1603391399
H        6.7438529715   -0.0549191480   -1.5399890345
H        0.9493821626    0.3587440164   -0.1657590119
H        0.6405168780   -1.1132310413    0.7773549275
H        0.2552163308   -1.0931425511   -0.9413717511
H        5.5678243421   -1.6461293146   -2.5582593532
18   
Generated by ForceBalance from scan.xyz: Frame 2 of 24
C        4.6789921835    1.3483062076    0.7836754281
C        5.8398371690    1.1077588802    0.0413218126
C        3.5472814822    0.5725922104    0.5397301335
C        5.8576834622    0.1018346896   -0.9236123699
C        3.5382003128   -0.4617041120   -0.4137139600
C        4.7224709533   -0.6903520585   -1.1556024289
C        2.3156937553   -1.3097270611   -0.5878898126
C        0.9710060123   -0.7235402248   -0.1688472942
O        2.3728064424   -2.4561666845   -1.0104589570
O        4.7330514823   -1.6597798269   -2.1123292191
H        4.6575665317    2.1292546914    1.5378505826
H        6.7325090465    1.7047721064    0.2085535770
H        2.6490039587    0.7597745933    1.1195018629
H        6.7605888238   -0.0769091987   -1.5060343764
H        0.9063504468    0.3583111972   -0.3067862276
H        0.8006790282   -0.9365784658    0.8935771777
H        0.1865052639   -1.2251589884   -0.7376721506
H        5.5972152666   -1.6472307859   -2.5550137042
18   
Generated by ForceBalance from scan.xyz: Frame 3 of 24
C        4.6482327014    1.3470032786    0.7712240097
C        5.8245933153    1.0932962929    0.0580813086
C        3.5165326472    0.5805087142    0.5031436295
C        5.8544949908    0.0849617910   -0.9029768746
C        3.5148690417   -0.4545122579   -0.4514915251
C        4.7163994357   -0.6948774849   -1.1647679863
C        2.2800837892   -1.2735641739   -0.6700993328
C        0.9619294150   -0.7380816807   -0.1196716799
O        2.3020609333   -2.3516205131   -1.2486647397
O        4.7505259599   -1.6670919470   -2.1167834342
H        4.6155580378    2.1307042871    1.5221234104
H        6.7194271507    1.6808547295    0.2460936951
H        2.6080482095    0.7818565568    1.0605516932
H        6.7700297172   -0.1064904259   -1.4612225303
H        0.8129246443    0.3213334938   -0.3479373965
H        0.9322539150   -0.8501582630    0.9704977325
H        0.1504531387   -1.3283147155   -0.5470815927
H        5.6302809020   -1.6623997081   -2.5285179494
18   
Generated by ForceBalance from scan.xyz: Frame 4 of 24
C        4.6399900288    1.3725528808    0.7398759982
C        5.8406025864    1.0789047846    0.0846610862
C        3.5053350714    0.6238767696    0.4387969393
C        5.8889554945    0.0505152629   -0.8532632514
C        3.5160826351   -0.4237506432   -0.5035911121
C        4.7442246313   -0.7050845684   -1.1567020270
C        2.2643614325   -1.1955128472   -0.7867457078
C        0.9967282532   -0.8052943830   -0.0319704878
O        2.2263216762   -2.1161428548   -1.5927257348
O        4.8087595128   -1.7061242595   -2.0756535699
H        4.5917467556    2.1723126544    1.4727873180
H        6.7401168708    1.6489622372    0.3020057219
H        2.5796347807    0.8590996133    0.9517824301
H        6.8247353529   -0.1764243256   -1.3625628181
H        0.7144818417    0.2338291979   -0.2319780415
H        1.1257410873   -0.9120001045    1.0503791333
H        0.1926307364   -1.4637502184   -0.3620454829
H        5.7186406920   -1.7519624655   -2.4133419033
18   
Generated by ForceBalance from scan.xyz: Frame 5 of 24
C        4.6163453844    1.3979529270    0.7045685414
C        5.8282224376    1.0518746986    0.0976433008
C        3.4687536104    0.6775780114    0.3818440794
C        5.8761119983    0.0016454177   -0.8166731278
C        3.4782324564   -0.3807874770   -0.5468622858
C        4.7166530755   -0.7171003101   -1.1498567097
C        2.2060553030   -1.0950154090   -0.8852020256
C        1.0075747731   -0.8937873562    0.0372958870
O        2.0961833409   -1.8063121026   -1.8748528804
O        4.7763422038   -1.7516109491   -2.0323772685
H        4.5694257734    2.2150056494    1.4182408588
H        6.7381951751    1.5961595114    0.3364018248
H        2.5321974018    0.9518217744    0.8553390117
H        6.8222221696   -0.2696431670   -1.2833368295
H        0.5746386225    0.1022907714   -0.1111598626
H        1.2714270608   -0.9920967956    1.0943199223
H        0.2522352757   -1.6358234337   -0.2247894524
H        5.7003404390   -1.8651976068   -2.3096220154
18   
Generated by ForceBalance from scan.xyz: Frame 6 of 24
C        4.6399745927    1.4193187500    0.6946736512
C        5.8522278061    1.0435926288    0.1065809416
C        3.4815041144    0.7199378894    0.3620235168
C        5.8917035318   -0.0133406474   -0.8014607549
C        3.4843175844   -0.3392712183   -0.5638507091
C        4.7209909670   -0.7054621256   -1.1487450623
C        2.1989924411   -1.0130470824   -0.9343982566
C        1.0367351246   -0.9302572560    0.0507952451
O        2.0466197235   -1.5834139024   -2.0056839560
O        4.7628438405   -1.7508395308   -2.0207609073
H        4.6008861557    2.2422268423    1.4020729721
H        6.7701701979    1.5693467055    0.3560368104
H        2.5419424132    1.0154922823    0.8179432849
H        6.8388348084   -0.3088289831   -1.2509491598
H        0.4564722448   -0.0204491932   -0.1441165669
H        1.3505148178   -0.9259181211    1.0971637565
H        0.3787506800   -1.7811822595   -0.1350479760
H        5.6862429838   -1.8968423385   -2.2833900818
18   
Generated by ForceBalance from scan.xyz: Frame 7 of 24
C        4.6482527572    1.4404073001    0.7201152167
C        5.8603560389    1.0423252445    0.1469949670
C        3.4804048920    0.7631488534    0.3724915057
C        5.8920470312   -0.0139027604   -0.7630073515
C        3.4769653685   -0.2918261292   -0.5567649655
C        4.7123031401   -0.6802070898   -1.1275868090
C        2.1827627624   -0.9295795920   -0.9601198678
C        1.0374928266   -0.9472715507    0.0487229615
O        2.0102942413   -1.3959567814   -2.0772705179
O        4.7395252273   -1.7268953775   -1.9997095953
H        4.6158330776    2.2632382014    1.4279374240
H        6.7848912035    1.5496024396    0.4099259523
H        2.5393363805    1.0762234871    0.8144278298
H        6.8393851471   -0.3275955416   -1.1994739645
H        0.3082872434   -0.1752735879   -0.2219543972
H        1.3486292702   -0.8028570784    1.0846499958
H        0.5281156403   -1.9092788712   -0.0469445405
H        5.6611115002   -1.8928489413   -2.2560551105
18   
Generated by ForceBalance from scan.xyz: Frame 8 of 24
C        4.6723135146    1.4355443275    0.7188069588
C        5.8785159436    1.0126558883    0.1514102611
C        3.4919463853    0.7830580056    0.3650038046
C        5.8943227410   -0.0424109859   -0.7606729983
C        3.4733307163   -0.2696201319   -0.5661360287
C        4.7025713052   -0.6821022419   -1.1326265161
C        2.1703174190   -0.8800910489   -0.9852548757
C        1.0429362535   -0.9775909481    0.0389696897
O        1.9854888154   -1.2876825581   -2.1230532291
O        4.7099526893   -1.7284076278   -2.0062763167
H        4.6532569619    2.2584523722    1.4270123327
H        6.8118547984    1.5002260344    0.4203519299
H        2.5549270727    1.1171574871    0.8002964808
H        6.8373641090   -0.3751005705   -1.1923583331
H        0.1807425846   -0.4063206959   -0.3189515623
H        1.3106086383   -0.6522176376    1.0448364540
H        0.7332672918   -2.0261954175    0.0811622419
H        5.6282787873   -1.9146344229   -2.2600480526
18   
Generated by ForceBalance from scan.xyz: Frame 9 of 24
C        4.7273957338    1.1992899697    0.9739878718
C        5.8488389672    1.0160460343    0.1586255895
C        3.5649217563    0.4809189734    0.6978641334
C        5.8000649718    0.1207851636   -0.9095837976
C        3.4918293842   -0.4435173410   -0.3585732086
C        4.6364084213   -0.6177722896   -1.1719949354
C        2.2481894288   -1.2550320514   -0.5591940520
C        0.9073562112   -0.6408668704   -0.1651842727
O        2.2842910162   -2.3972859852   -0.9939151642
O        4.5743964018   -1.4784989211   -2.2269530161
H        4.7588933701    1.8929031343    1.8088604127
H        6.7628370641    1.5725085487    0.3488142799
H        2.6963129063    0.6202427048    1.3344559998
H        6.6721607224   -0.0114907293   -1.5485527959
H        0.1906087140   -0.8720357896   -0.9571212334
H        0.9386166969    0.4407690126   -0.0227245220
H        0.5484411595   -1.1134174281    0.7554247213
H        5.4174387899   -1.4422496404   -2.7070287565
18   
Generated by ForceBalance from scan.xyz: Frame 10 of 24
C        4.7006700992    1.1973550287    0.9776883060
C        5.8402730732    1.0098740630    0.1886246125
C        3.5425368336    0.4842925138    0.6735884614
C        5.8114000384    0.1173192553   -0.8819158682
C        3.4864634501   -0.4371149925   -0.3877422968
C        4.6497670078   -0.6136455504   -1.1754351468
C        2.2380550014   -1.2299160198   -0.6258969346
C        0.9154471899   -0.6533973743   -0.1286758435
O        2.2571564495   -2.3291102337   -1.1620117520
O        4.6139307709   -1.4707022177   -2.2335357769
H        4.7156888516    1.8899053361    1.8139094598
H        6.7527302014    1.5605871646    0.4016761834
H        2.6605325453    0.6294736631    1.2893776072
H        6.6979047072   -0.0194639609   -1.4998126043
H        0.1182193748   -1.0383087382   -0.7672129433
H        0.8895357206    0.4388794697   -0.1362457046
H        0.7268900846   -0.9959822671    0.8953694843
H        5.4698224868   -1.4331744031   -2.6905986838
18   
Generated by ForceBalance from scan.xyz: Frame 11 of 24
C        4.6798061477    1.1842819332    0.9571313989
C        5.8325783581    0.9732493312    0.1933759552
C        3.5164926361    0.4909557994    0.6310747516
C        5.8083154180    0.0787900896   -0.8747337774
C        3.4603827711   -0.4301241727   -0.4322703400
C        4.6385490586   -0.6287684395   -1.1952694787
C        2.1942169044   -1.1804458868   -0.7100461319
C        0.9028467024   -0.6545892502   -0.0907462671
O        2.1708128398   -2.1986679709   -1.3882282571
O        4.6187004761   -1.4881129824   -2.2507742627
H        4.6894403388    1.8793419207    1.7913417647
H        6.7511278799    1.5060299261    0.4251369071
H        2.6262052302    0.6582951879    1.2278373226
H        6.7055630732   -0.0787154968   -1.4719136044
H        0.0652911389   -1.1532733569   -0.5802697432
H        0.7988372170    0.4290256912   -0.1986137121
H        0.8695663269   -0.8900303000    0.9792787634
H        5.4892606662   -1.4659727406   -2.6809956399
18   
Generated by ForceBalance from scan.xyz: Frame 12 of 24
C        4.6924902399    1.2259817475    0.9288367915
C        5.8673960298    0.9574467143    0.2185885140
C        3.5214388165    0.5618235537    0.5736283072
C        5.8544977161    0.0373703316   -0.8268610657
C        3.4701846109   -0.3750860711   -0.4777262157
C        4.6730478006   -0.6327198465   -1.1853309102
C        2.1812316946   -1.0586814177   -0.8155539978
C        0.9473725071   -0.7101237622    0.0120869689
O        2.0872782868   -1.8765423627   -1.7215690364
O        4.6778662377   -1.5286120624   -2.2091627521
H        4.6918716055    1.9416103899    1.7455241701
H        6.7944141087    1.4628420713    0.4765531097
H        2.6160660454    0.7768629251    1.1299096685
H        6.7704030357   -0.1702606042   -1.3787367374
H        0.1101877962   -1.2954645133   -0.3694955912
H        0.7029535409    0.3549100973   -0.0612026274
H        1.0957728677   -0.9447011793    1.0715284171
H        5.5787228324   -1.5743869260   -2.5702441433
18   
Generated by ForceBalance from scan.xyz: Frame 13 of 24
C        4.6601672409    1.2508642110    0.8994278168
C        5.8486353240    0.9215141831    0.2392656237
C        3.4784084660    0.6186461937    0.5198738990
C        5.8400121731   -0.0248099080   -0.7834277310
C        3.4310550833   -0.3314963804   -0.5180223881
C        4.6462387413   -0.6528310967   -1.1735985957
C        2.1242754586   -0.9472528443   -0.9136158353
C        0.9541622926   -0.8231755807    0.0575350022
O        1.9653021893   -1.5162633149   -1.9851615194
O        4.6494166873   -1.5885254770   -2.1622463638
H        4.6573543688    1.9872018672    1.6974926100
H        6.7842919846    1.3976145977    0.5206494714
H        2.5600023087    0.8791870029    1.0350332966
H        6.7680091977   -0.2842352704   -1.2913702603
H        0.1759559881   -1.5185581122   -0.2597301207
H        0.5432864569    0.1927052180    0.0318080833
H        1.2430525954   -1.0415403957    1.0897823882
H        5.5642088408   -1.7129769376   -2.4641123671
18   
Generated by ForceBalance from scan.xyz: Frame 14 of 24
C        4.6773890682    1.2760198092    0.9094024699
C        5.8688270567    0.9167304389    0.2707687741
C        3.4876444197    0.6676944509    0.5136046703
C        5.8573513031   -0.0335289987   -0.7492414257
C        3.4396420279   -0.2805119016   -0.5242584744
C        4.6556245791   -0.6316474534   -1.1590725283
C        2.1238093066   -0.8498984742   -0.9580318464
C        0.9767044602   -0.8549269733    0.0484564892
O        1.9364569150   -1.2649809283   -2.0932046988
O        4.6458614646   -1.5751576193   -2.1414679061
H        4.6780488726    2.0161945701    1.7039201897
H        6.8101375132    1.3718415452    0.5675225889
H        2.5641009010    0.9505592269    1.0088424113
H        6.7882819739   -0.3175602660   -1.2382104565
H        0.3142198045   -1.6863822479   -0.1990405092
H        0.4040467112    0.0753666901   -0.0421189120
H        1.3103212475   -0.9540423758    1.0841559879
H        5.5600564524   -1.7308554736   -2.4293416017
18   
Generated by ForceBalance from scan.xyz: Frame 15 of 24
C        4.7031752337    1.2810660411    0.9029773456
C        5.8870909446    0.8907627657    0.2689146331
C        3.4998334351    0.6981089625    0.5082932361
C        5.8561233584   -0.0635573010   -0.7475773439
C        3.4341051219   -0.2507813354   -0.5267287467
C        4.6412565293   -0.6324279366   -1.1585609623
C        2.1058185375   -0.7818039831   -0.9729492455
C        0.9838624363   -0.8929319416    0.0561969940
O        1.8909699449   -1.0924875675   -2.1358530788
O        4.6057984687   -1.5811986881   -2.1364202878
H        4.7194271272    2.0252417082    1.6935732235
H        6.8381620709    1.3243827505    0.5666595012
H        2.5805519133    1.0053832447    0.9978288144
H        6.7815159274   -0.3724787948   -1.2318761866
H        0.4875510693   -1.8546117014   -0.0960428156
H        0.2447468761   -0.1055432414   -0.1264826218
H        1.3229115431   -0.8312341527    1.0917870854
H        5.5145347365   -1.7626666420   -2.4258591937
18   
Generated by ForceBalance from scan.xyz: Frame 16 of 24
C        4.6151473541    1.5717545561    0.6169614952
C        5.7544125121    1.2643041638   -0.1335373873
C        3.4961869505    0.7456410906    0.5187378354
C        5.7687958182    0.1418902558   -0.9613619414
C        3.4875130780   -0.4031493275   -0.2910193936
C        4.6500206370   -0.7006418364   -1.0407937163
C        2.2956660780   -1.3118121773   -0.2946568663
C        0.9075816723   -0.7015633611   -0.1204486652
O        2.4083186272   -2.5227534233   -0.4203898507
O        4.6460895451   -1.7875215195   -1.8634427395
H        4.5990890283    2.4424102363    1.2656502419
H        6.6343881846    1.8998855296   -0.0801009774
H        2.6147898768    0.9809285838    1.1077091852
H        6.6546853241   -0.0880366639   -1.5518662006
H        0.4433609057   -1.1139443825    0.7808152688
H        0.3001617729   -1.0305352498   -0.9690153384
H        0.8897202923    0.3880964750   -0.0803576706
H        5.4920012421   -1.8204530403   -2.3385769721
18   
Generated by ForceBalance from scan.xyz: Frame 17 of 24
C        4.5948657513    1.5676774167    0.6302261845
C        5.7488955879    1.2632544724   -0.0989320373
C        3.4772958713    0.7440147233    0.5037103516
C        5.7762536155    0.1468010395   -0.9341023143
C        3.4806958230   -0.3994976887   -0.3141331094
C        4.6574372961   -0.6928159859   -1.0435030920
C        2.2828228940   -1.2985570607   -0.3484556196
C        0.9085355509   -0.6858597849   -0.0922230043
O        2.3813121531   -2.5029237588   -0.5357499340
O        4.6704152774   -1.7729528375   -1.8741852072
H        4.5670910762    2.4342964606    1.2839183421
H        6.6291742089    1.8961921229   -0.0232518575
H        2.5835969935    0.9786508420    1.0739568950
H        6.6733935090   -0.0812355382   -1.5081189793
H        0.5923427577   -0.9270770452    0.9289645084
H        0.1990313544   -1.1734258035   -0.7652449182
H        0.8636571132    0.3946027221   -0.2384841086
H        5.5262717871   -1.8018971313   -2.3316201520
18   
Generated by ForceBalance from scan.xyz: Frame 18 of 24
C        4.5900606125    1.5362572148    0.6180348514
C        5.7562747230    1.2240702703   -0.0884116863
C        3.4688211440    0.7230048353    0.4654368683
C        5.7896511018    0.1113664797   -0.9274496122
C        3.4753030595   -0.4168192342   -0.3591468100
C        4.6649174564   -0.7167858837   -1.0665364629
C        2.2628193525   -1.2928870139   -0.4348438336
C        0.9123006082   -0.6795856402   -0.0767084078
O        2.3314118044   -2.4774755786   -0.7318856689
O        4.6912211411   -1.7924652392   -1.9015215650
H        4.5565457164    2.4006843599    1.2743602255
H        6.6410613288    1.8477523557    0.0087331509
H        2.5662122220    0.9662297084    1.0169172131
H        6.6967239863   -0.1238301009   -1.4827089210
H        0.7432118295   -0.7728972674    1.0027125625
H        0.1366365600   -1.2611088449   -0.5784375048
H        0.8235443112    0.3734326470   -0.3535428256
H        5.5569488922   -1.8213184723   -2.3404296261
18   
Generated by ForceBalance from scan.xyz: Frame 19 of 24
C        4.5591761018    1.5331324193    0.6058291881
C        5.7406850152    1.2114840969   -0.0704490535
C        3.4377030175    0.7263587538    0.4284283827
C        5.7857354936    0.0971051754   -0.9055411023
C        3.4513282457   -0.4140228036   -0.3974442915
C        4.6579254248   -0.7221338311   -1.0753698822
C        2.2268861704   -1.2676829589   -0.5200523481
C        0.9023020311   -0.6901755832   -0.0303446602
O        2.2616187081   -2.4033232545   -0.9745167366
O        4.7070189690   -1.7996861451   -1.9054828676
H        4.5147423738    2.3996200580    1.2587682051
H        6.6277999415    1.8281131526    0.0482829879
H        2.5251104147    0.9808772642    0.9565752973
H        6.7052841387   -0.1476919619   -1.4356369600
H        0.8735297833   -0.6769262823    1.0653927579
H        0.1002867728   -1.3393570572   -0.3841504445
H        0.7344353813    0.3312831697   -0.3839329421
H        5.5882615230   -1.8331193575   -2.3127088160
18   
Generated by ForceBalance from scan.xyz: Frame 20 of 24
C        4.5600918584    1.5654150580    0.5682925679
C        5.7645710489    1.2103167378   -0.0482696685
C        3.4339267575    0.7744466077    0.3568212994
C        5.8250186043    0.0801362841   -0.8598452131
C        3.4568270827   -0.3753634762   -0.4575195866
C        4.6886602367   -0.7176460027   -1.0735302301
C        2.2136944863   -1.1881090841   -0.6488874633
C        0.9442090923   -0.7333739051    0.0655983843
O        2.1839300369   -2.1911137682   -1.3501094735
O        4.7651065855   -1.8184633030   -1.8691818810
H        4.5023987064    2.4446564074    1.2028852035
H        6.6577429670    1.8113253721    0.1012751855
H        2.5051804288    1.0578256750    0.8390393017
H        6.7639004453   -0.1948466068   -1.3388609961
H        1.0800999785   -0.7146884218    1.1521629054
H        0.1483816383   -1.4362632357   -0.1828120053
H        0.6453127139    0.2721473436   -0.2491836866
H        5.6756390175   -1.8931082381   -2.1999041602
18   
Generated by ForceBalance from scan.xyz: Frame 21 of 24
C        4.5385368917    1.5805828425    0.5408072309
C        5.7560791921    1.1768950668   -0.0172181231
C        3.3995497474    0.8144051863    0.3045726326
C        5.8180180688    0.0247999965   -0.7983115538
C        3.4232266875   -0.3476799837   -0.4901585890
C        4.6671343165   -0.7409566888   -1.0453548358
C        2.1596459615   -1.1108021983   -0.7438096566
C        0.9584883727   -0.8196158441    0.1504354695
O        2.0588331233   -1.9311957156   -1.6461499842
O        4.7404903615   -1.8737416299   -1.7964319447
H        4.4806468964    2.4770642970    1.1507867225
H        6.6595512494    1.7555856981    0.1564391042
H        2.4585430438    1.1337799526    0.7394233666
H        6.7685435501   -0.2907232661   -1.2266135214
H        1.2253942817   -0.7834028332    1.2106798802
H        0.2124381014   -1.5969698243   -0.0189106587
H        0.5143802903    0.1473960144   -0.1133211590
H        5.6666602015   -2.0106842289   -2.0552223264
18   
Generated by ForceBalance from scan.xyz: Frame 22 of 24
C        4.5618045927    1.6008600002    0.5285492797
C        5.7798474258    1.1695384217   -0.0070324025
C        3.4115270391    0.8544492217    0.2800737748
C        5.8331939391    0.0112155202   -0.7808150942
C        3.4284310004   -0.3083739068   -0.5114199683
C        4.6706467764   -0.7296009260   -1.0449408130
C        2.1513628863   -1.0349926452   -0.8031614927
C        0.9882357085   -0.8585145288    0.1681240944
O        2.0061461022   -1.7204097842   -1.8057905881
O        4.7256329235   -1.8724365842   -1.7839456747
H        4.5119055088    2.5027033777    1.1312994937
H        6.6915688975    1.7310298163    0.1793685447
H        2.4674247294    1.1934091622    0.6946256390
H        6.7848657130   -0.3266293491   -1.1889628160
H        1.3048363385   -0.7097344996    1.2031303659
H        0.3425871683   -1.7348646667    0.0921139886
H        0.3988590991    0.0168411903   -0.1310817520
H        5.6512564358   -2.0400960453   -2.0248145301
18   
Generated by ForceBalance from scan.xyz: Frame 23 of 24
C        4.5792601046    1.6082409716    0.5382241592
C        5.7950512949    1.1558194497    0.0153929440
C        3.4182506456    0.8818915948    0.2781213551
C        5.8382720486   -0.0023855934   -0.7599514495
C        3.4262159501   -0.2784509689   -0.5158636158
C        4.6652143988   -0.7201231173   -1.0384657503
C        2.1400120714   -0.9761618421   -0.8369979327
C        0.9928759188   -0.8872244607    0.1660247064
O        1.9745469644   -1.5772712740   -1.8890504083
O        4.7032637068   -1.8641120902   -1.7777287446
H        4.5386497175    2.5107939913    1.1405947840
H        6.7141894044    1.7010594588    0.2131279312
H        2.4743472006    1.2377563115    0.6796361237
H        6.7885918335   -0.3565749410   -1.1572367074
H        1.2934141271   -0.5677472457    1.1651868140
H        0.5149152724   -1.8680392926    0.2193567996
H        0.2447792511   -0.1822967086   -0.2144387608
H        5.6266765399   -2.0508524357   -2.0123367534
18   
Generated by ForceBalance from scan.xyz: Frame 24 of 24
C        4.7111185932    1.3858674345    0.7872537336
C        5.8402698717    1.1544262166   -0.0044768533
C        3.5802406949    0.5907145118    0.6038985704
C        5.8316338354    0.1357445634   -0.9573229186
C        3.5490068374   -0.4558453817   -0.3333195645
C        4.7012075314   -0.6779215320   -1.1233679242
C        2.3456446707   -1.3449676987   -0.4306794382
C        0.9639269153   -0.7344257291   -0.2149486282
O        2.4455756937   -2.5392869342   -0.6717532120
O        4.6746744854   -1.6614521426   -2.0672479901
H        4.7117727512    2.1749588093    1.5331950898
H        6.7291753478    1.7684395292    0.1139689034
H        2.7068221076    0.7668267923    1.2247032612
H        6.7092362601   -0.0346789691   -1.5794829957
H        0.9672996302    0.3358280964   -0.0053766129
H        0.4591468906   -1.2662067615    0.5972570181
H        0.3829647440   -0.9112825722   -1.1253631279
H        5.5163467338   -1.6511085420   -2.5507642595
