30   
Generated by ForceBalance from scan.xyz: Frame 1 of 9
C        1.3376502656    6.5612887798    2.8885438548
C        2.6168257742    6.7960371634    3.4030222757
C        0.9444471743    5.2580780148    2.5756361235
C        3.5006645763    5.7320408665    3.6036369118
C        1.8139764536    4.1814250530    2.7684171832
C        3.0877744973    4.4436922440    3.2846528633
C        1.4769549943    0.7039030379    1.6886977253
C        0.7394986156    0.7074167890    2.8418842443
C        2.1909921474    2.0692853057    1.5679958860
C        1.3364216807    1.8748696289    3.5429732565
C        1.5504894567   -0.4390742545    0.7301153813
C       -0.0482052042   -0.4537554342    3.3506376104
C        1.0442672342   -1.7241361798    1.4170063682
C       -0.2485164949   -1.4791800143    2.2159545113
N        1.3410656004    2.8639084852    2.4348489055
O        3.1093198965    2.4261222687    0.8733401686
O        1.6400041437    2.0754538903    4.6912985968
F        3.9478303864    3.4202015148    3.4802829326
H        0.6498706318    7.3870595080    2.7318853591
H        2.9307175789    7.8064557019    3.6498646398
H       -0.0441002194    5.0525603950    2.1748587949
H        4.4993155149    5.8829714605    4.0018447369
H        0.9452995250   -0.2105987033   -0.1584824948
H        2.5792500161   -0.5546393674    0.3711168467
H        0.4866041335   -0.8990456663    4.2001494519
H       -1.0139855143   -0.1176624954    3.7463938484
H        0.8791619570   -2.5047566215    0.6675119483
H        1.8223481978   -2.0940491542    2.0962298873
H       -0.6155441793   -2.4206895895    2.6369492484
H       -1.0273268179   -1.1125643259    1.5356068404
30   
Generated by ForceBalance from scan.xyz: Frame 2 of 9
C        1.4353566073    6.5957131724    2.8631323254
C        2.7131525038    6.7602209982    3.4070721625
C        0.9703579663    5.3149557738    2.5527510545
C        3.5292662757    5.6491500680    3.6421069049
C        1.7713418904    4.1951551482    2.7804207803
C        3.0442210394    4.3870255789    3.3250246286
C        1.3949206105    0.7239982275    1.6551259004
C        0.7078485075    0.6905130923    2.8225980234
C        2.0115522167    2.0990476066    1.5068514839
C        1.1085913391    1.9390942962    3.5396381184
C        1.5172574163   -0.4195632762    0.7014684162
C       -0.0011686504   -0.5081539144    3.3616418355
C        1.1130321290   -1.7279014224    1.4101747302
C       -0.1696330691   -1.5570956018    2.2441080613
N        1.2678724096    2.8923650578    2.4569880678
O        2.8553558048    2.4932125194    0.7360281723
O        1.2001653661    2.1729882917    4.7222630026
F        3.8258472190    3.3057339309    3.5472864247
H        0.8032112301    7.4597600086    2.6810596174
H        3.0798063511    7.7535512419    3.6503957853
H       -0.0185210204    5.1645709519    2.1293218599
H        4.5251381936    5.7464251515    4.0632084405
H        0.8757052723   -0.2373730751   -0.1716939701
H        2.5414026368   -0.4708703519    0.3160083539
H        0.5782311893   -0.9130734342    4.2019171095
H       -0.9730809789   -0.2216065003    3.7798790630
H        0.9767400420   -2.5235178988    0.6707191843
H        1.9314696176   -2.0428038599    2.0694707611
H       -0.4645248900   -2.5156766652    2.6828744617
H       -0.9884854060   -1.2470567825    1.5827651314
30   
Generated by ForceBalance from scan.xyz: Frame 3 of 9
C        1.4995224566    6.6084331905    2.8547886170
C        2.7713440559    6.7409543674    3.4211568063
C        1.0058514870    5.3397703809    2.5388247669
C        3.5549979942    5.6103024118    3.6743110561
C        1.7748816771    4.2021659074    2.7850376538
C        3.0419993109    4.3609652045    3.3517859086
C        1.3425917363    0.7376736746    1.6252194304
C        0.6978775745    0.6844847873    2.8080873021
C        1.8921758123    2.1225873046    1.4437951601
C        0.9426477132    1.9822553323    3.5106940680
C        1.4943609382   -0.4090175512    0.6791355169
C        0.0453915542   -0.5352243818    3.3728815709
C        1.1632644568   -1.7262600688    1.4078592157
C       -0.1059305937   -1.6017630567    2.2702290741
N        1.2686719008    2.9054685916    2.4660737617
O        2.6552850409    2.5363042175    0.5975130445
O        0.8382161616    2.2486848126    4.6887518478
F        3.7858228372    3.2555718302    3.5901189319
H        0.8940193897    7.4885275467    2.6597432831
H        3.1588712846    7.7253570194    3.6683225187
H        0.0209926474    5.2142257201    2.0985582873
H        4.5451939225    5.6839600137    4.1131223255
H        0.8262388223   -0.2624896729   -0.1803990164
H        2.5105684455   -0.4194574038    0.2705388678
H        0.6561932809   -0.9111832351    4.2042315127
H       -0.9261851649   -0.2789546448    3.8101999949
H        1.0446584812   -2.5340074993    0.6785787486
H        2.0092219541   -1.9997165328    2.0508005869
H       -0.3496426377   -2.5678056322    2.7237974019
H       -0.9520584700   -1.3324861119    1.6254960789
30   
Generated by ForceBalance from scan.xyz: Frame 4 of 9
C        1.5854512921    6.6039183952    2.7270982599
C        2.7930792656    6.7457486952    3.4185124295
C        1.0974376903    5.3288009545    2.4308337909
C        3.5208882978    5.6182932808    3.8123636356
C        1.8114515067    4.1935889272    2.8173680507
C        3.0184381971    4.3615276191    3.5006888232
C        1.2801232646    0.7449795717    1.6143447955
C        0.7244568070    0.6662258418    2.8367887355
C        1.7765121296    2.1404487747    1.3995176134
C        0.8828035626    1.9873587682    3.5210079765
C        1.3962807541   -0.3911935628    0.6501211072
C        0.1282310226   -0.5696606545    3.4290602871
C        1.1375408189   -1.7210281117    1.3847034038
C       -0.0755648881   -1.6286656586    2.3280304375
N        1.3301609717    2.8884577736    2.5198018962
O        2.4126996888    2.5813056095    0.4632994378
O        0.6540522520    2.2729357351    4.6789977451
F        3.7160055999    3.2591161889    3.8607818441
H        1.0246721750    7.4821689665    2.4215319334
H        3.1740769688    7.7356920261    3.6533012845
H        0.1607137802    5.1965846946    1.8975469218
H        4.4620185801    5.6997027119    4.3472444598
H        0.6721535397   -0.2504558016   -0.1636594968
H        2.3839709606   -0.3785354637    0.1770327469
H        0.7960580641   -0.9454076835    4.2154979821
H       -0.8159622791   -0.3307764404    3.9306982704
H        0.9873652917   -2.5239034943    0.6558312921
H        2.0277966277   -1.9846806828    1.9693354599
H       -0.2721320187   -2.6035313822    2.7856131232
H       -0.9660227314   -1.3685511279    1.7418166713
30   
Generated by ForceBalance from scan.xyz: Frame 5 of 9
C        1.7200838429    6.5517814112    2.4663576598
C        2.7072925036    6.8102392580    3.4233854670
C        1.3327506052    5.2372929794    2.1996706979
C        3.3227350279    5.7557160021    4.1041581570
C        1.9364791881    4.1721139826    2.8747911690
C        2.9368643243    4.4536011098    3.8101195494
C        1.2480384852    0.7652692815    1.5979944168
C        0.8656456334    0.6283775576    2.8794395497
C        1.7097817986    2.1714875246    1.3756491695
C        1.0473986602    1.9364122313    3.5836808957
C        1.2205674360   -0.3231246257    0.5736603965
C        0.3301409994   -0.6285484712    3.4851239285
C        1.0307080102   -1.6851286805    1.2692508046
C       -0.0438736047   -1.6241896361    2.3701265260
N        1.5624111424    2.8306212358    2.6164281453
O        2.1275215785    2.6735043934    0.3497046519
O        0.7908611385    2.2134465775    4.7381275545
F        3.5569929385    3.4258082827    4.4324788246
H        1.2472019463    7.3715650467    1.9338585660
H        3.0038478188    7.8325614956    3.6402762753
H        0.5649443962    5.0214636049    1.4635002881
H        4.0985136482    5.9247764223    4.8444682973
H        0.4031389451   -0.1307054225   -0.1341210695
H        2.1403159989   -0.3018384650   -0.0206824491
H        1.0916547223   -1.0570169708    4.1503866364
H       -0.5293124746   -0.4006759013    4.1247179588
H        0.7669153659   -2.4456955629    0.5273929062
H        1.9842782595   -1.9940678753    1.7155445150
H       -0.1999872439   -2.6190475715    2.7993722703
H       -0.9981646248   -1.3181783936    1.9230666731
30   
Generated by ForceBalance from scan.xyz: Frame 6 of 9
C        1.7886433218    6.4779761901    2.3765827606
C        2.6691075040    6.7900271097    3.4178800048
C        1.4743950212    5.1464093221    2.0983702548
C        3.2511349668    5.7699141385    4.1757490476
C        2.0483347014    4.1144821093    2.8491722710
C        2.9413560263    4.4500615136    3.8719232425
C        1.2315736826    0.7406317106    1.5581527175
C        0.9380071802    0.5873321129    2.8615408309
C        1.6803001891    2.1499615356    1.3254032418
C        1.1041418125    1.9081158142    3.5449557652
C        1.1243032869   -0.3321278897    0.5228881494
C        0.4151386421   -0.6677276991    3.4815693936
C        0.9513848065   -1.7009487497    1.2097457346
C       -0.0494895115   -1.6378494620    2.3780008544
N        1.7588799467    2.7485164238    2.6050239047
O        1.9529322641    2.6852976743    0.2676190596
O        0.7658180010    2.2287222400    4.6653537682
F        3.5304760960    3.4574311224    4.5766945963
H        1.3403396648    7.2702774467    1.7844313904
H        2.9070377919    7.8261238245    3.6413902458
H        0.7928895110    4.8959549704    1.2928255499
H        3.9435034860    5.9785005616    4.9854334723
H        0.2698915203   -0.1134214381   -0.1314725281
H        2.0065780111   -0.3200390052   -0.1261617712
H        1.2069713655   -1.1236865946    4.0910132628
H       -0.3967330935   -0.4288290702    4.1768091902
H        0.6262290990   -2.4444209766    0.4749926513
H        1.9248846237   -2.0352617065    1.5898395135
H       -0.1976346076   -2.6366856124    2.8007437912
H       -1.0239755505   -1.3058143846    1.9982462992
30   
Generated by ForceBalance from scan.xyz: Frame 7 of 9
C        1.8394365402    6.4925830311    2.3429025549
C        2.6575654922    6.7997648238    3.4346526667
C        1.5392202991    5.1635438511    2.0356539642
C        3.1900581089    5.7744081054    4.2214563140
C        2.0683536949    4.1259880101    2.8121164929
C        2.8942103932    4.4583722278    3.8916501302
C        1.2032636021    0.7681923230    1.5348882022
C        0.9765926133    0.6052893852    2.8547394618
C        1.5842489649    2.2038959222    1.2746454995
C        1.0348422902    1.9633463669    3.4727310688
C        1.0893638622   -0.3124391715    0.5089864791
C        0.5057082329   -0.6590971609    3.4962179814
C        0.9690977630   -1.6830502955    1.2045997952
C        0.0151170946   -1.6388829341    2.4124284380
N        1.8135809202    2.7493857557    2.5639758671
O        1.7317458509    2.7635480616    0.2063291392
O        0.5707296238    2.3490318533    4.5232462852
F        3.4278497841    3.4601028206    4.6339708203
H        1.4270742041    7.2885950991    1.7298965996
H        2.8836683936    7.8343991262    3.6764522862
H        0.9079076136    4.9239429991    1.1883944481
H        3.8306684501    5.9760380470    5.0743688481
H        0.2112926924   -0.1142121237   -0.1201722866
H        1.9507559920   -0.2857757840   -0.1676272290
H        1.3313566524   -1.1003152278    4.0708230964
H       -0.2806718348   -0.4326754673    4.2241471315
H        0.6286875918   -2.4332894844    0.4837696393
H        1.9630874195   -1.9992134390    1.5450801618
H       -0.0963078962   -2.6404180830    2.8400682359
H       -0.9799817433   -1.3248065789    2.0732251925
30   
Generated by ForceBalance from scan.xyz: Frame 8 of 9
C        1.9608679612    6.4869981605    2.3364603541
C        2.7042698234    6.7633384910    3.4873662895
C        1.6548847121    5.1686178066    1.9880892494
C        3.1543114987    5.7154636456    4.2962806559
C        2.1033395761    4.1075587860    2.7847472944
C        2.8527292718    4.4120225404    3.9279198107
C        1.1477982694    0.7750722696    1.5185564982
C        0.9962756746    0.6143710944    2.8548998606
C        1.4590889628    2.2348047803    1.2403424154
C        0.9475394784    2.0061127481    3.3934907766
C        1.0262317549   -0.3179355689    0.5079444449
C        0.5895980489   -0.6570068482    3.5255785258
C        0.9901631088   -1.6844799888    1.2214256606
C        0.0904333647   -1.6648803311    2.4709518423
N        1.8629891766    2.7260267505    2.5203402280
O        1.4593853760    2.8214537258    0.1781460030
O        0.3584831057    2.4641762547    4.3430727088
F        3.3004181257    3.3923155644    4.7005019479
H        1.6104057924    7.2991493968    1.7061452202
H        2.9353258903    7.7894764069    3.7588861563
H        1.0828349980    4.9577427194    1.0938673013
H        3.7337700400    5.8908181764    5.1973733112
H        0.1122703087   -0.1577899397   -0.0797024966
H        1.8529735229   -0.2685983493   -0.2097336047
H        1.4490085219   -1.0652812127    4.0745041839
H       -0.1780807078   -0.4456131729    4.2777727803
H        0.6466534367   -2.4547567453    0.5236007550
H        2.0100503807   -1.9587672184    1.5187765247
H        0.0368961678   -2.6661393714    2.9102494623
H       -0.9300048704   -1.3914836588    2.1748635786
30   
Generated by ForceBalance from scan.xyz: Frame 9 of 9
C        2.1539585788    6.7328373267    1.9842846096
C        2.7890806455    7.0171228213    3.1957056763
C        1.7978395185    5.4214756855    1.6547887829
C        3.0822361784    5.9802182913    4.0874991835
C        2.0859795436    4.3700539306    2.5359958766
C        2.7342972420    4.6842708034    3.7389658173
C        1.0113821010    1.0209231676    1.4758529832
C        1.0042369627    0.9143969376    2.8391354556
C        1.2072823839    2.5108449987    1.1006757561
C        0.8251386157    2.3406968817    3.2094339829
C        0.8405976963   -0.1227282592    0.5322786016
C        0.7117635336   -0.3409634681    3.5951278144
C        0.9160292158   -1.4562050539    1.3045710885
C        0.1434756436   -1.4063130981    2.6355692236
N        1.8237504110    2.9850581776    2.3028499204
O        0.9951215819    3.0737940272    0.0491303273
O        0.1387512730    2.9001216072    4.0238158061
F        3.0348997664    3.6734578905    4.5938200393
H        1.9255764750    7.5350190641    1.2883868768
H        3.0580105083    8.0383232300    3.4503301121
H        1.3051619782    5.2069481922    0.7160829144
H        3.5767726276    6.1587702736    5.0372952314
H       -0.1254761589   -0.0169533864    0.0202764222
H        1.5999438520   -0.0836040233   -0.2576898682
H        1.6371041532   -0.7006186585    4.0649845331
H        0.0168271407   -0.1246129760    4.4135287422
H        0.5286058963   -2.2653104056    0.6772317392
H        1.9679586419   -1.6911061527    1.5093322340
H        0.1650021459   -2.3888684937    3.1179038459
H       -0.9088845273   -1.1725499098    2.4322908956
