27

C      0.46339    0.07341    2.17705
C      0.01503   -0.54223    0.99946
C      0.25800   -0.54853    3.41728
C     -0.63993   -1.78100    1.02579
C     -0.39480   -1.77495    3.44979
C     -0.83125   -2.37686    2.27049
C      1.50251   -3.68784    4.94677
C      2.99109   -4.55954    3.47776
C     -1.43230   -3.87347    3.88264
C      3.61825   -5.05746    4.80194
C     -0.73782   -2.67948    4.61125
N      1.64555   -4.06051    3.73258
N      0.41176   -3.02504    5.45072
O     -1.44229   -3.58442    2.46184
S      2.87796   -3.97861    6.08886
H      0.97254    1.03175    2.12673
H      0.18058   -0.05249    0.04305
H      0.61792   -0.09102    4.33579
H     -0.97886   -2.26834    0.11666
H      3.59811   -3.74887    3.05183
H      2.95798   -5.36882    2.74169
H     -0.88469   -4.80455    4.03415
H     -2.47192   -3.99429    4.19989
H      3.35048   -6.09636    5.01171
H      4.70470   -4.95313    4.81849
H     -1.44309   -2.18747    5.28841
H      0.23271   -3.15212    6.43790
