39

C      2.49731    0.98437    1.09149
C      2.37484   -0.30902    1.62063
C      1.44660    1.51659    0.35089
C      1.21625   -1.04781    1.40603
C      0.27042    0.78485    0.11310
C      0.16261   -0.50581    0.65551
C     -2.25509    2.97976   -5.27126
C     -1.51544    1.65759   -5.29865
C     -2.14790    0.53908   -0.52916
C     -0.87913    1.40229   -0.66495
C     -1.13293    2.71754   -4.30404
C     -1.88994   -0.97978   -0.52068
C     -3.17302   -1.71948   -0.14637
C     -1.32125   -1.52877   -1.83859
C     -0.43147    1.66392   -2.11100
N     -1.46291    2.48545   -2.87065
O     -0.95715   -1.28683    0.53893
H      3.39528    1.56865    1.26667
H      3.18387   -0.73796    2.20483
H      1.52941    2.53329   -0.03165
H      1.09779   -2.04708    1.81397
H     -2.06894    3.70713   -6.05414
H     -3.27501    2.97893   -4.89548
H     -2.04298    0.77848   -4.93704
H     -0.81509    1.45835   -6.10250
H     -2.62269    0.79411    0.42250
H     -2.89834    0.75979   -1.30215
H     -1.09217    2.38454   -0.21745
H     -0.19004    3.24415   -4.40419
H     -2.96846   -2.78724   -0.03630
H     -3.93320   -1.59306   -0.92369
H     -3.57254   -1.34842    0.80113
H     -1.31152   -2.62081   -1.80654
H     -0.29058   -1.20538   -2.00390
H     -1.93637   -1.22575   -2.69438
H     -0.29011    0.75299   -2.68783
H      0.49342    2.24152   -2.14024
H     -1.59068    3.38815   -2.39626
H     -2.37001    2.00916   -2.80358
