25   

C       -0.1964871417   -5.5682919518   -3.7894833385
C        0.0689463117   -4.7724854681   -2.5994561573
C       -0.4476749205   -4.7866834932   -4.8864133054
C       -0.0129272745   -1.0256541153   -1.8632895815
C        0.2404608229   -2.3720519471   -1.8595235012
C       -0.0001617853   -3.4173698093   -2.8393193816
C        0.4575894297   -0.5436584951   -0.5776610466
C       -2.1755065026   -0.2991702315   -2.9379667138
C        0.3597664583    0.8514688792   -0.0343247588
C       -0.6550567127   -0.1565317384   -2.9271727135
N        0.9477431713   -1.5363415825    0.1165300387
N        0.8188893528   -2.6537362351   -0.6506856914
O       -2.7282832521   -0.5112348163   -4.0048803114
O       -2.8413949615   -0.1562417314   -1.7641585951
S       -0.3707744533   -3.0698988982   -4.5109459257
H       -0.1980759464   -6.6529344638   -3.8062304683
H        0.2846534124   -5.2158274806   -1.6352369597
H       -0.6723262118   -5.1692569507   -5.8754263912
H       -0.5231347501    1.3579515259   -0.4323582305
H        0.2873991964    0.8233989365    1.0567663581
H        1.2528689282    1.4174317428   -0.3115406591
H       -0.2482831058   -0.3936309544   -3.9122050204
H       -0.4167377476    0.8932489141   -2.7427085092
H        1.1354708294   -3.5797332244   -0.3758398397
H       -3.7815353662   -0.2978325699   -1.9596743862
25   

C       -0.1774299960   -5.4511122023   -4.0024230946
C       -0.0552542169   -4.6890232739   -2.7679219779
C       -0.0582781882   -4.6555180369   -5.1121003897
C        0.0927299005   -0.9966765963   -1.9200434800
C        0.3398292724   -2.3406023283   -1.9612229066
C        0.1325320198   -3.3438956784   -2.9927386050
C        0.5288892213   -0.5687043797   -0.6036341954
C       -2.0620090303   -0.2405629188   -2.9324156025
C        0.4265934164    0.8053619210   -0.0099017579
C       -0.5430446757   -0.1020867709   -2.9629142252
N        0.9865861498   -1.5937245417    0.0667765215
N        0.8747282051   -2.6797696321   -0.7478975860
O       -2.6073653661   -0.8952256177   -3.8056413786
O       -2.7367213395    0.4217663153   -1.9594228209
S        0.2027502305   -2.9659761450   -4.6950898536
H       -0.3475394764   -6.5217364883   -4.0403590701
H       -0.1228967341   -5.1399663895   -1.7851913814
H       -0.1222207419   -5.0126477691   -6.1334550151
H       -0.4206254629    1.3481815485   -0.4362524763
H        0.2909313910    0.7350059272    1.0731967348
H        1.3453773610    1.3620072038   -0.2115138863
H       -0.1674034089   -0.3345562272   -3.9608361642
H       -0.2856482171    0.9417577168   -2.7683239371
H        1.1863588658   -3.6179260079   -0.5091408856
H       -3.6761902067    0.2091715898   -2.0819170257
25   

C       -0.2060032007   -5.3877128720   -3.9889109670
C       -0.1792971522   -4.6045328134   -2.7616475551
C        0.1849373452   -4.6518625723   -5.0783030236
C        0.1277017541   -0.9600699283   -1.9153211591
C        0.3992661791   -2.2969924972   -1.9443949881
C        0.2026457551   -3.3020727775   -2.9789424208
C        0.5620115629   -0.5127496457   -0.6044221205
C       -2.0713984647   -0.2190593919   -2.8225616269
C        0.4819645916    0.8721164297   -0.0328048640
C       -0.5567154392   -0.1153670014   -2.9681146851
N        1.0605181090   -1.5208470072    0.0641573457
N        0.9749828727   -2.6141193461   -0.7450194134
O       -2.6841963568   -0.9421613761   -3.5908682841
O       -2.6681920284    0.5424038995   -1.8714727491
S        0.5926513949   -2.9929134980   -4.6525641157
H       -0.5045602951   -6.4294306059   -4.0368835395
H       -0.4456510532   -5.0035155601   -1.7897964250
H        0.2338750778   -5.0348435251   -6.0910994458
H       -0.4304318514    0.9665719995    0.5623834537
H        1.3412417996    1.0574032519    0.6178401551
H        0.4655494855    1.6240737367   -0.8243572391
H       -0.2622304768   -0.4269214644   -3.9718380159
H       -0.2663689599    0.9320955895   -2.8632487107
H        1.3209715735   -3.5418686939   -0.5111457792
H       -3.6167285751    0.3383080353   -1.9109682628
25   

C       -0.2654873542   -5.3797425187   -4.0031583485
C       -0.3247267202   -4.5779951418   -2.7887566811
C        0.3696795575   -4.7214874540   -5.0262854614
C        0.0874500469   -1.0108205593   -1.8921175325
C        0.4144036417   -2.3321734013   -1.9144152642
C        0.2384271745   -3.3374744119   -2.9568747610
C        0.5452503623   -0.5283111374   -0.6028956077
C       -2.1513891005   -0.2751456894   -2.6949576255
C        0.4264290556    0.8616284713   -0.0517614950
C       -0.6487821835   -0.2225849445   -2.9516608200
N        1.1097582766   -1.5063469737    0.0592738010
N        1.0454399433   -2.6131347011   -0.7350036433
O       -2.8221647756   -1.0824520624   -3.3171745466
O       -2.6748179140    0.6161307172   -1.8165489336
S        0.9110374363   -3.1131745276   -4.5547314065
H       -0.6794231579   -6.3786376291   -4.0896781495
H       -0.7726919042   -4.9157245088   -1.8611344089
H        0.5197770829   -5.1321182311   -6.0181099033
H       -0.4357031367    0.9140483221    0.6186005947
H        1.3246480862    1.1143014492    0.5185466491
H        0.2936536523    1.5914053672   -0.8532549231
H       -0.4366163566   -0.6216555946   -3.9461961838
H       -0.3227154427    0.8199927282   -2.9440179012
H        1.4346383227   -3.5246677525   -0.5040385758
H       -3.6261648766    0.4271035695   -1.7680871203
25   

C       -1.1172062689   -5.1562181902   -4.3183639625
C       -1.3116271741   -4.3236332293   -3.1390996652
C        0.1179398965   -4.9672825239   -4.8877316068
C       -0.0410114478   -1.2526437393   -1.7395933789
C       -0.0727358126   -2.6112370407   -1.7546113880
C       -0.2230728286   -3.5303678158   -2.8823393920
C        0.1634778784   -0.8927675446   -0.3500740158
C       -1.6799024699    0.1003072088   -3.0332077244
C        0.2779549522    0.4872047667    0.2256692962
C       -0.2193979439   -0.3236539565   -2.9173187676
N        0.2501464047   -1.9778360571    0.3778490218
N        0.1138398266   -3.0380588155   -0.4703214631
O       -2.4280448051   -0.5658393022   -3.7301577399
O       -2.0652116256    1.2267145590   -2.3834846446
S        1.0835100374   -3.7768030735   -4.0191036225
H       -1.8650265080   -5.8405165428   -4.7044921685
H       -2.2153040914   -4.3156957859   -2.5399465778
H        0.4667383751   -5.4820429250   -5.7755495286
H       -0.6820487782    0.7822108001    0.6576070160
H        1.0324641909    0.4989766540    1.0171890393
H        0.5546053035    1.2102795972   -0.5447941949
H        0.0886998596   -0.8180194466   -3.8425595959
H        0.4048533197    0.5649807057   -2.7963345759
H        0.1596321231   -4.0183183551   -0.1999909082
H       -3.0154705324    1.3307509155   -2.5549913551
25   

C       -1.1374568586   -4.8686182522   -4.4828398047
C       -1.3176240296   -4.0137654644   -3.3174783686
C        0.1860164575   -5.0136906046   -4.8196299807
C       -0.0586683924   -1.2814300245   -1.7007542563
C        0.0409160556   -2.6362598419   -1.6980115104
C       -0.1225733426   -3.5723850782   -2.8116490179
C        0.1423538785   -0.8815951351   -0.3224677617
C       -1.8224264983   -0.0173798707   -2.9257645059
C        0.1690306598    0.5154761784    0.2215359304
C       -0.3447036787   -0.3932462471   -2.8882210759
N        0.3224025741   -1.9435505783    0.4219988785
N        0.2551344671   -3.0261930215   -0.4066000802
O       -2.6224606015   -0.8330223763   -3.3560173228
O       -2.1711343349    1.2210340638   -2.4976214551
S        1.2566299066   -4.1259307267   -3.7376274757
H       -1.9568666568   -5.3270186089   -5.0259775474
H       -2.2818495913   -3.7293393133   -2.9093191690
H        0.5418018446   -5.6022843487   -5.6573649407
H       -0.8040117067    0.7561430488    0.6576435517
H        0.9292482518    0.5957375037    1.0036396450
H        0.3901192562    1.2366551200   -0.5686456038
H       -0.0800010786   -0.9051623827   -3.8176058941
H        0.2598173946    0.5156015675   -2.8313976801
H        0.3518056800   -3.9972701515   -0.1169539217
H       -3.1375067304    1.2773957104   -2.5766630345
25   

C       -1.1186512270   -4.7674678624   -4.5955747237
C       -1.2874622378   -3.8464773550   -3.4802949284
C        0.1841517363   -5.1760405046   -4.7375639234
C       -0.0988660542   -1.3201925467   -1.7250168558
C        0.0752670196   -2.6694887443   -1.7163071596
C       -0.1133948575   -3.6243547523   -2.8065492069
C        0.1355776636   -0.8961451187   -0.3589928354
C       -1.9241625964   -0.0374605395   -2.8607137928
C        0.1257920138    0.5072510491    0.1692466281
C       -0.4550505536   -0.4459446265   -2.9056311527
N        0.3936184063   -1.9395503794    0.3879154918
N        0.3474586871   -3.0328222863   -0.4275135627
O       -2.7612958037   -0.8227343770   -3.2758462802
O       -2.2241827292    1.1989400780   -2.3925338317
S        1.2461820053   -4.4653622591   -3.5249730045
H       -1.9296917209   -5.0839984040   -5.2426159915
H       -2.2277387478   -3.3724718760   -3.2192149699
H        0.5303118222   -5.8566361702   -5.5068667990
H       -0.8441176260    0.7188983239    0.6267287195
H        0.9020463311    0.6238716694    0.9307846241
H        0.3018426869    1.2261146011   -0.6343540973
H       -0.2568514244   -0.9746500571   -3.8421582964
H        0.1681847651    0.4521187390   -2.9031390315
H        0.4904650972   -3.9957203413   -0.1297721410
H       -3.1913936535    1.2801002267   -2.4298738028
25   

C       -1.0866962014   -4.7291801520   -4.6713126687
C       -1.2527719410   -3.7339759660   -3.6214814850
C        0.1492961994   -5.3234927428   -4.6309109947
C       -0.1660860354   -1.3283048409   -1.7273632918
C        0.0481214302   -2.6742984023   -1.7347131845
C       -0.1481538487   -3.6357111447   -2.8124791643
C        0.1174544763   -0.9042280137   -0.3698594300
C       -2.0356422527   -0.0152640363   -2.7723172723
C        0.0995765425    0.4955817414    0.1681452417
C       -0.5745161515   -0.4415452518   -2.8832186409
N        0.4398584410   -1.9422070152    0.3584504818
N        0.3895953636   -3.0320217950   -0.4603460692
O       -2.8944811132   -0.7536202930   -3.2264434802
O       -2.3044276782    1.1912783355   -2.2162295975
S        1.1479569273   -4.7021112598   -3.3202999035
H       -1.8523132590   -4.9660734923   -5.4023497745
H       -2.1473878065   -3.1354811003   -3.4941775217
H        0.4823283761   -6.0883745690   -5.3229746053
H       -0.8590577935    0.6872402814    0.6570806397
H        0.8974458172    0.6216668706    0.9054864492
H        0.2378865227    1.2226233539   -0.6354702153
H       -0.4194998279   -0.9603266966   -3.8331284296
H        0.0557870666    0.4514268366   -2.9012675847
H        0.5740184456   -3.9912651322   -0.1737871988
H       -3.2707157180    1.2901531985   -2.2280078613
25   

C       -1.0237584842   -4.6789766012   -4.7620334552
C       -1.1698860284   -3.6223241321   -3.7711561102
C        0.1059961393   -5.4285483818   -4.5568391241
C       -0.1914763044   -1.3272398521   -1.7251754513
C        0.0384130219   -2.6726883389   -1.7614108733
C       -0.1577160718   -3.6249228291   -2.8423469620
C        0.1451696640   -0.9187482456   -0.3740565329
C       -2.1009960984   -0.0118439804   -2.7035054613
C        0.1346751178    0.4714611798    0.1893602116
C       -0.6348132790   -0.4116621232   -2.8466135376
N        0.5176146695   -1.9607829283    0.3228459941
N        0.4490549507   -3.0383987112   -0.5094492126
O       -2.9473612829   -0.6906942563   -3.2616476674
O       -2.3864665369    1.1169047096   -2.0097555443
S        1.0243376134   -4.8811960863   -3.1584293583
H       -1.7286854561   -4.8489578391   -5.5688312564
H       -1.9941652893   -2.9202256287   -3.7662483460
H        0.4066814043   -6.2638846340   -5.1787186814
H       -0.8102027027    0.6478789726    0.7097647589
H        0.9534299845    0.5902697257    0.9047083666
H        0.2443900025    1.2142631084   -0.6040356915
H       -0.4785532284   -0.8922027059   -3.8159124848
H       -0.0221179146    0.4935215522   -2.8436028055
H        0.6668664613   -3.9973120591   -0.2461891810
H       -3.3532392415    1.2106502306   -2.0233727717
25   

C       -0.9242344875   -4.6365962659   -4.8097546890
C       -1.0449083733   -3.5179849946   -3.8859339389
C        0.0611972129   -5.5124598417   -4.4361894821
C       -0.2235118658   -1.2935985915   -1.7121865499
C        0.0185843682   -2.6392502899   -1.7586590364
C       -0.1543661962   -3.5911959605   -2.8407439155
C        0.1392082259   -0.8855297425   -0.3666658772
C       -2.1684472679   -0.0349841556   -2.7003624033
C        0.1179843140    0.4993553840    0.2107195596
C       -0.6818215856   -0.3619042236   -2.8153611598
N        0.5499256894   -1.9226623763    0.3145251492
N        0.4794530155   -2.9966102015   -0.5210043851
O       -2.9562389308   -0.6505522086   -3.3997758729
O       -2.5342293504    0.9723842015   -1.8707314680
S        0.8702058162   -5.0100136487   -2.9568834712
H       -1.5463767826   -4.7599141024   -5.6898076372
H       -1.7769196190   -2.7312870083   -4.0103726563
H        0.3180506842   -6.4132279474   -4.9817087585
H       -0.8199631618    0.6557029738    0.7497614495
H        0.9475013555    0.6238244802    0.9125932724
H        0.2017742309    1.2529994347   -0.5752594362
H       -0.4700051981   -0.7950223581   -3.7959652674
H       -0.1165342409    0.5719170114   -2.7648999438
H        0.7290090788   -3.9507698419   -0.2689396130
H       -3.5019982122    1.0356779917   -1.9247846600
25   

C       -0.8019801341   -4.6333544522   -4.8401687154
C       -0.8659820287   -3.4629436837   -3.9771079335
C       -0.0028528656   -5.6163193909   -4.3208571815
C       -0.2129325134   -1.2947226140   -1.6952989989
C        0.0450753445   -2.6406706168   -1.7512960624
C       -0.1159560001   -3.5971241929   -2.8306256015
C        0.2162019161   -0.8754370515   -0.3720438127
C       -2.2249305503   -0.1801029449   -2.7452383106
C        0.1728344705    0.5024512482    0.2212125047
C       -0.7069999993   -0.3488951708   -2.7721638527
N        0.6672882457   -1.9038364190    0.2942321612
N        0.5616383153   -2.9819931210   -0.5301132305
O       -2.8815089380   -0.6783732195   -3.6449042921
O       -2.7638184938    0.5746724390   -1.7569531498
S        0.6943266646   -5.1524908094   -2.7749291295
H       -1.3324986164   -4.7152896553   -5.7828397835
H       -1.4681743108   -2.6007448231   -4.2238126528
H        0.1815951742   -6.5717225971   -4.7984961811
H       -0.5465054052    1.1350214408   -0.3028271138
H       -0.1085102841    0.4438799860    1.2763252464
H        1.1632968045    0.9600977441    0.1528186555
H       -0.3820804483   -0.6903361332   -3.7578537016
H       -0.2526367691    0.6346969306   -2.6283794743
H        0.8354577350   -3.9311939625   -0.2846638434
H       -3.7247378085    0.5697815100   -1.8974219909
25   

C       -0.7274046502   -4.6472267467   -5.0039835435
C       -0.6592905215   -3.4489737269   -4.1803133392
C       -0.2026497208   -5.7414615431   -4.3713607310
C       -0.1054904346   -1.3725053363   -1.7862371580
C        0.1230669007   -2.7236446444   -1.8674474981
C       -0.0799948880   -3.6698881101   -2.9498637425
C        0.3537057700   -0.9803317701   -0.4653702488
C       -2.1540327717   -0.3609753199   -2.8578901852
C        0.3037422477    0.3840185620    0.1577962768
C       -0.6284988145   -0.3956504063   -2.8204754871
N        0.8149726613   -2.0222527313    0.1711014671
N        0.6795215568   -3.0844241560   -0.6690756187
O       -2.7190944183   -0.7535695379   -3.8657539790
O       -2.8044428770    0.1604243077   -1.7888497067
S        0.3894535653   -5.3516370482   -2.7632071763
H       -1.1524988899   -4.6675343672   -6.0018174567
H       -1.0515950860   -2.5035159869   -4.5242160138
H       -0.1565203757   -6.7349012728   -4.8025264912
H       -0.5079439576    0.9775397885   -0.2696705067
H        0.1463621391    0.2955612755    1.2365024947
H        1.2523676835    0.8995969122   -0.0138729690
H       -0.2257858742   -0.6320328027   -3.8075799087
H       -0.2737287825    0.6113344170   -2.5883142147
H        0.9558944640   -4.0387185175   -0.4474547947
H       -3.7537671460    0.0938421492   -1.9818437702
25   

C       -0.8357743230   -4.5202714680   -4.9090740500
C       -0.5394893816   -3.3097313792   -4.1570485363
C       -0.7112727189   -5.6489122411   -4.1441166810
C       -0.0286682892   -1.2398608426   -1.7552215838
C        0.1362986170   -2.5998858606   -1.8109688338
C       -0.1963372879   -3.5602435353   -2.8467708235
C        0.4885058910   -0.8415588700   -0.4584832273
C       -2.1257017471   -0.5389259753   -2.9914329158
C        0.4906579975    0.5328225923    0.1435902566
C       -0.6330346257   -0.2952175792   -2.7759318902
N        0.9293851538   -1.8895611792    0.1839841721
N        0.7181172877   -2.9630919081   -0.6264854747
O       -2.5339138339   -0.6002375233   -4.1401510638
O       -2.9251880145   -0.6648788022   -1.9033414113
S       -0.2327103272   -5.2787351269   -2.4934267885
H       -1.1238465071   -4.5232933131   -5.9549448143
H       -0.5861970042   -2.3295900639   -4.6106262702
H       -0.8864628123   -6.6558275996   -4.5052368683
H       -0.4030156345    1.0849839948   -0.1578700170
H        0.5091902682    0.4635452373    1.2352017719
H        1.3780000873    1.0782174792   -0.1883095100
H       -0.0963544027   -0.3820003890   -3.7233725028
H       -0.5099764471    0.7390953474   -2.4484236204
H        0.9562803930   -3.9245968032   -0.3922938773
H       -3.8199397139   -0.8458352129   -2.2332791722
25   

C       -0.8496791612   -4.4124830569   -4.9110394078
C       -0.3954767985   -3.2470158819   -4.1666290639
C       -1.0227284111   -5.5067211167   -4.1042523324
C        0.0111167683   -1.2020496315   -1.7338075398
C        0.1613939949   -2.5610809937   -1.7944851607
C       -0.2312951121   -3.5034631077   -2.8252391934
C        0.5770960854   -0.8134047180   -0.4547677682
C       -2.1104887748   -0.7120933937   -3.0526343038
C        0.6717483631    0.5673068066    0.1244732257
C       -0.6825603380   -0.2792943581   -2.7189006431
N        1.0447984104   -1.8665864653    0.1621070283
N        0.8019533340   -2.9364345373   -0.6457055590
O       -2.4635238314   -0.6475580097   -4.2194088903
O       -2.9131521170   -1.1467963877   -2.0494826087
S       -0.6409137237   -5.1594570859   -2.4221238179
H       -1.0324428194   -4.4100321624   -5.9803419265
H       -0.2063746615   -2.2884594332   -4.6335389500
H       -1.3570869200   -6.4770142543   -4.4531003633
H       -0.2297831555    0.7807189835    0.7053663430
H        1.5379082156    0.6356628836    0.7889355916
H        0.7715761711    1.3142387823   -0.6664274784
H       -0.0924729904   -0.2174025075   -3.6366389787
H       -0.7402398733    0.7299829707   -2.3064485452
H        1.0499354660   -3.8998049821   -0.4301660817
H       -3.7505553347   -1.4163886408   -2.4592508930
25   

C       -0.7911872906   -4.3883474733   -4.9370078218
C       -0.2456389354   -3.2593474145   -4.1975340337
C       -1.1844669443   -5.4079782925   -4.1083955729
C       -0.0151588007   -1.1730311318   -1.7673690814
C        0.1718113997   -2.5252711840   -1.8187964623
C       -0.2252845715   -3.4783871825   -2.8413467857
C        0.5912393129   -0.7559069879   -0.5166603920
C       -2.1508438696   -0.8426348391   -3.1237047986
C        0.6612088306    0.6322564657    0.0474219024
C       -0.7740749599   -0.2949427251   -2.7453709615
N        1.1257801165   -1.7879104971    0.0836259710
N        0.8860729557   -2.8729405894   -0.7059712785
O       -2.4802909738   -0.7823698625   -4.2976329324
O       -2.9365700090   -1.3681518683   -2.1510113914
S       -0.9040541626   -5.0346939348   -2.4109173784
H       -0.8815692176   -4.4134625098   -6.0177338949
H        0.0976010471   -2.3451525061   -4.6676133807
H       -1.6206990268   -6.3394896946   -4.4503315311
H       -0.1975691033    0.8024191450    0.7025926747
H        1.5755525344    0.7506667176    0.6358616451
H        0.6532628824    1.3771928068   -0.7515628763
H       -0.1752630318   -0.1645699493   -3.6504384125
H       -0.9279570904    0.6952986319   -2.3114487887
H        1.1814576906   -3.8250601636   -0.5003231767
H       -3.7331798880   -1.7061069852   -2.5902753448
25   

C       -0.7391561524   -4.3768339791   -4.9246477706
C       -0.1115244974   -3.3054388150   -4.1645264291
C       -1.3498342471   -5.2985751289   -4.1121602528
C       -0.0470601543   -1.1800017693   -1.7267637068
C        0.1652545316   -2.5261101571   -1.7853742145
C       -0.2430742693   -3.4791156316   -2.8092347801
C        0.6075566396   -0.7499923215   -0.5055172185
C       -2.1969290141   -0.9403836517   -3.0844635197
C        0.6704296472    0.6396496570    0.0552656014
C       -0.8548348367   -0.3254240340   -2.6859181322
N        1.2000701718   -1.7690885679    0.0631218752
N        0.9510404605   -2.8592106317   -0.7174584571
O       -2.5092774327   -0.9028416909   -4.2640120206
O       -2.9756572739   -1.4918494286   -2.1206525262
S       -1.1802111809   -4.9024618420   -2.4046294485
H       -0.7324037801   -4.4312165832   -6.0080202575
H        0.3868551182   -2.4548198454   -4.6155224982
H       -1.8806723297   -6.1726372316   -4.4714884727
H       -0.1464860634    0.7818342047    0.7680394929
H        1.6185299008    0.7878343565    0.5800803341
H        0.5831448753    1.3835607703   -0.7399599145
H       -0.2624991050   -0.1444815496   -3.5867655334
H       -1.0637052324    0.6446389685   -2.2295794327
H        1.2847946993   -3.8031051424   -0.5336008401
H       -3.7462665230   -1.8711731406   -2.5723043347
25   

C        0.3134579743   -4.8433059838   -4.5662733535
C        0.7606961971   -3.8658961521   -3.5836393754
C       -0.9643759185   -5.2782074385   -4.3169286057
C       -0.0303567486   -1.2861960997   -1.6199950067
C       -0.0743647676   -2.6433029655   -1.5445381946
C       -0.1865183346   -3.6273783162   -2.6204938810
C        0.1247877058   -0.8338994132   -0.2510180738
C       -1.6140270699   -0.0276577692   -3.0732867918
C        0.2245883535    0.5810096776    0.2359481150
C       -0.1593470232   -0.4358099031   -2.8626315065
N        0.1791316842   -1.8675026201    0.5507093624
N        0.0607877156   -2.9818403793   -0.2278357444
O       -2.2969073503   -0.6797751503   -3.8459467260
O       -2.0614541097    1.0770300600   -2.4258061045
S       -1.6624047406   -4.5246226429   -2.8858655048
H        0.9171166317   -5.1814651693   -5.4015851861
H        1.7253823000   -3.3718370281   -3.6094553562
H       -1.4952448315   -5.9998624251   -4.9270232428
H       -0.7508074978    0.9071934745    0.6068646385
H        0.9454786804    0.6430091497    1.0559037099
H        0.5366953591    1.2504921519   -0.5685428396
H        0.1924519832   -0.9860064062   -3.7393460064
H        0.4540862889    0.4636506713   -2.7709588327
H        0.0642787366   -3.9413064856    0.1123607717
H       -2.9988391164    1.1720646468   -2.6616522501
25   

C        0.4225183398   -5.0562631585   -4.4144503635
C        0.8775491510   -4.0985942692   -3.4158259984
C       -0.9375346462   -5.2391403693   -4.3723169155
C       -0.0968080836   -1.2652449461   -1.6426993070
C       -0.0346463348   -2.6213253610   -1.5858038933
C       -0.1577080707   -3.6046496031   -2.6641894282
C        0.0880157293   -0.8198250452   -0.2753065414
C       -1.7908526670   -0.0316138586   -2.9973474010
C        0.1301866564    0.5939372211    0.2228351038
C       -0.3199936595   -0.4150839449   -2.8715791560
N        0.2406261201   -1.8572932226    0.5093384892
N        0.1620425807   -2.9684091474   -0.2791674586
O       -2.5111788963   -0.7080928826   -3.7129166651
O       -2.2128792421    1.0801807176   -2.3451900616
S       -1.7084757157   -4.2621263553   -3.1254285048
H        1.0809308852   -5.5617985999   -5.1126643169
H        1.9114467676   -3.8010075529   -3.2814544816
H       -1.4870027109   -5.9030270366   -5.0297436632
H       -0.8463017383    0.8647361170    0.6330481299
H        0.8776831383    0.6876721726    1.0155575629
H        0.3761074300    1.2851545528   -0.5863872197
H       -0.0094601804   -0.9583390442   -3.7685466566
H        0.2827315798    0.4945761731   -2.8136325571
H        0.2255845822   -3.9300705954    0.0486254726
H       -3.1635355793    1.1599708133   -2.5273185318
25   

C        0.4550071338   -5.2159611737   -4.2667194811
C        0.9269575512   -4.2907817176   -3.2456674524
C       -0.8992083603   -5.1161394356   -4.4670231161
C       -0.0993863366   -1.2029763287   -1.6438774964
C        0.0518342948   -2.5536687109   -1.6459483201
C       -0.0855882678   -3.5146572122   -2.7404103529
C        0.1104161974   -0.8012969386   -0.2665198858
C       -1.8610796775    0.1320095115   -2.8204476207
C        0.1147624761    0.5944900969    0.2814206502
C       -0.4018743909   -0.3124504179   -2.8268584993
N        0.3393946478   -1.8584996929    0.4718108844
N        0.2913629935   -2.9412066502   -0.3573677540
O       -2.6884039917   -0.5725400944   -3.3747735248
O       -2.1582306173    1.3212066904   -2.2405691792
S       -1.6426438955   -3.8998472989   -3.4323913240
H        1.0984527629   -5.9031941406   -4.8055589711
H        1.9585185919   -4.2193417677   -2.9195429304
H       -1.4589444321   -5.7094101499   -5.1809199698
H       -0.8562743670    0.8124918097    0.7335809954
H        0.8858046721    0.6900647294    1.0511389876
H        0.3069584304    1.3220921500   -0.5105367006
H       -0.1908167939   -0.8405939282   -3.7609535586
H        0.2414779305    0.5708278593   -2.7998583401
H        0.3932765031   -3.9112943932   -0.0664902499
H       -3.1190679111    1.4342442988   -2.3268621648
25   

C        0.4432409413   -5.3811425865   -4.1665339615
C        0.8885016331   -4.4665640377   -3.1243588944
C       -0.8422167331   -5.1187218691   -4.5680320282
C       -0.1898205937   -1.2121177225   -1.7215886497
C        0.0481074229   -2.5516228068   -1.7314263656
C       -0.0657976036   -3.5310813951   -2.8070151948
C        0.0530235861   -0.7955955858   -0.3537714608
C       -2.0464238385    0.0812825018   -2.8065908371
C        0.0045400141    0.6000466749    0.1926722085
C       -0.5800413741   -0.3321212988   -2.8875656818
N        0.3773472069   -1.8346334052    0.3740894658
N        0.3619426056   -2.9196159270   -0.4526763577
O       -2.8892830326   -0.6578487932   -3.2873457485
O       -2.3357847032    1.2820316723   -2.2472349441
S       -1.5489598600   -3.7569852149   -3.7037401660
H        1.0555295162   -6.1771978379   -4.5765301240
H        1.8638124607   -4.5158169493   -2.6535346744
H       -1.3725445672   -5.6760302387   -5.3316374995
H       -0.9662304004    0.7750956186    0.6635120041
H        0.7859001835    0.7326375417    0.9463921932
H        0.1483517292    1.3337034896   -0.6040034522
H       -0.4044324403   -0.8545157064   -3.8319282747
H        0.0435143551    0.5657202238   -2.8954250784
H        0.5262434590   -3.8813488974   -0.1632676828
H       -3.3022530089    1.3727595971   -2.2815952799
25   

C        0.3757745166   -5.4421138219   -4.0946545854
C        0.7928038369   -4.5739865630   -3.0024438386
C       -0.7954984061   -5.0202772265   -4.6699245184
C       -0.2117377657   -1.1939389129   -1.7225449596
C        0.0471562907   -2.5318163785   -1.7475490235
C       -0.0642518194   -3.5151654338   -2.8149111295
C        0.0798312337   -0.7779084182   -0.3634954934
C       -2.1159130129    0.0852357211   -2.7457939352
C        0.0301152636    0.6138164073    0.1936406924
C       -0.6433564385   -0.2973170460   -2.8621468420
N        0.4554077761   -1.8119507259    0.3455334241
N        0.4271625913   -2.8934135373   -0.4843544963
O       -2.9531364062   -0.6546137815   -3.2350673012
O       -2.4177691501    1.2636845749   -2.1470736389
S       -1.4246197594   -3.5612485323   -3.9121438484
H        0.9266109511   -6.3196585570   -4.4159040513
H        1.6857330983   -4.7422640755   -2.4115802286
H       -1.2865386587   -5.5173519340   -5.4986065733
H       -0.9265109314    0.7719359375    0.6981609733
H        0.8346787640    0.7531311114    0.9213170425
H        0.1365371907    1.3552325999   -0.6015958542
H       -0.4701211821   -0.7895325910   -3.8224510658
H       -0.0396404947    0.6139262911   -2.8606708359
H        0.6215177211   -3.8516357734   -0.2030350040
H       -3.3861389449    1.3374504452   -2.1637694649
25   

C        0.2967953039   -5.5632030941   -3.9842844397
C        0.6765550185   -4.7310304719   -2.8514339134
C       -0.7272737077   -5.0109885792   -4.7088391468
C       -0.2049724871   -1.2339675420   -1.6974659164
C        0.0586208840   -2.5741769656   -1.7235764376
C       -0.0622613307   -3.5717850708   -2.7735952807
C        0.1469496845   -0.8046493355   -0.3557415617
C       -2.1696235191   -0.0309720042   -2.7018314803
C        0.1095934376    0.5879353893    0.2016827561
C       -0.6774886225   -0.3288900337   -2.8157474165
N        0.5686269468   -1.8281111125    0.3411225747
N        0.5128497887   -2.9150700743   -0.4784448804
O       -2.9511400673   -0.6935825146   -3.3636473779
O       -2.5484410192    1.0050325946   -1.9132680553
S       -1.2585428709   -3.4707282767   -4.0443674109
H        0.7695386060   -6.5086424119   -4.2279418300
H        1.4668930223   -4.9983911007   -2.1602484341
H       -1.1666667089   -5.4595716152   -5.5923665617
H       -0.8278707015    0.7396860375    0.7428266906
H        0.9406706514    0.7336629807    0.8976236390
H        0.1797114846    1.3308274312   -0.5958357421
H       -0.4623657455   -0.7745044377   -3.7896533506
H       -0.1293806615    0.6157770564   -2.7812448207
H        0.7382225909   -3.8662556707   -0.1977940356
H       -3.5176570509    1.0443564667   -1.9613834324
25   

C        0.2100133044   -5.5759154697   -3.9221221846
C        0.5314784100   -4.7746976476   -2.7496600248
C       -0.6081952184   -4.9076819548   -4.7944434707
C       -0.1868539615   -1.1681633899   -1.7275408536
C        0.0805820470   -2.5119024531   -1.7486288515
C       -0.0484109165   -3.5247645405   -2.7823181867
C        0.2335520600   -0.7168755564   -0.4120065697
C       -2.2150026369   -0.1016914443   -2.7809766289
C        0.1875782936    0.6750424394    0.1471775156
C       -0.6964668997   -0.2555262582   -2.8253960071
N        0.6805676734   -1.7289802343    0.2830369703
N        0.5803054097   -2.8282187828   -0.5133892106
O       -2.8866564080   -0.6817275232   -3.6177719819
O       -2.7393760249    0.7338435508   -1.8505948618
S       -1.0115589043   -3.2936300283   -4.2235161091
H        0.5770064272   -6.5831637370   -4.0878606478
H        1.1722753754   -5.1344736827   -1.9542111844
H       -0.9709191353   -5.3140945607   -5.7315464573
H       -0.5247450725    1.2964013492   -0.3993001531
H       -0.1041468206    0.6427938935    1.2005862063
H        1.1797621739    1.1287429158    0.0774420862
H       -0.3864244247   -0.6215753645   -3.8065682589
H       -0.2477193286    0.7348092207   -2.7145501255
H        0.8256333171   -3.7720137947   -0.2261746478
H       -3.7027074870    0.7069616407   -1.9694904879
25   

C       -0.0666358534   -5.5864073908   -3.8250608556
C        0.2691314111   -4.7891129820   -2.6537967404
C       -0.6418597171   -4.8330554294   -4.8143287899
C       -0.1104998455   -1.0693264026   -1.8204760792
C        0.1480848970   -2.4163602019   -1.8128005747
C       -0.0644025025   -3.4598964839   -2.8006841530
C        0.3564357186   -0.5805665014   -0.5359641215
C       -2.2276738681   -0.2030868722   -2.9018775518
C        0.2725704711    0.8202218491   -0.0046756229
C       -0.7004046328   -0.1861061183   -2.9037789067
N        0.8467683167   -1.5686679697    0.1634935860
N        0.7210570988   -2.6890629221   -0.5991937953
O       -2.8034838661   -0.3432223638   -3.9684811562
O       -2.8716986503   -0.0373843144   -1.7191295167
S       -0.7934678379   -3.1411661547   -4.3581899463
H        0.1169773577   -6.6524590997   -3.9061434343
H        0.7326356001   -5.2146354388   -1.7726453575
H       -0.9702349753   -5.2222229566   -5.7712674084
H       -0.5761946883    1.3500469452   -0.4440626992
H        0.1519878628    0.8003675603    1.0822207457
H        1.1933509010    1.3587732254   -0.2436632452
H       -0.3226209965   -0.4825054869   -3.8845229973
H       -0.3760121392    0.8461583284   -2.7543006586
H        1.0145308733   -3.6170754837   -0.3067883124
H       -3.8215843614   -0.0937731843   -1.9105937237
