52

C     -0.41935   -0.45590    2.18527
C     -0.99676   -1.58997    1.57844
C     -2.42078    3.73203    5.87910
C     -1.20021    0.46483    2.88717
C     -2.48298    2.53185    5.16319
C     -5.54486   -2.50151   -0.41176
C     -6.33851   -0.30068    0.19501
C     -2.37392   -1.81498    1.65543
C     -3.45589    4.66532    5.81346
C     -5.83892   -2.25593   -1.75917
C     -6.63336   -0.03712   -1.14419
C     -4.63423    3.19803    4.27291
C     -2.58810    0.25660    2.99838
C     -3.59434    2.24934    4.34585
C     -3.68824    0.99744    3.58099
C     -5.78988   -1.53860    0.57272
C     -3.14872   -0.89407    2.36650
C     -4.57271    4.38042    5.01157
C     -6.37811   -1.02134   -2.09506
C     -4.85052    0.28505    3.29140
C     -6.33184    0.53311    3.60895
C     -8.84401    6.32471    3.48034
C     -7.71996    7.32940    3.64345
C     -7.76859    6.09823    4.51931
C     -5.46435   -1.81479    2.03013
C     -6.77747    4.98863    4.29999
N     -4.51383   -0.86352    2.58472
O     -6.85640   -0.29803    4.38792
O     -6.85832    1.50422    2.99165
O     -5.57025    5.32902    4.99835
F     -6.66809   -0.76493   -3.40764
H      0.65227   -0.29015    2.09506
H     -0.36836   -2.28944    1.03167
H     -1.55937    3.93507    6.51289
H     -0.73846    1.34636    3.32156
H     -1.69213    1.79712    5.27387
H     -5.11351   -3.46018   -0.13018
H     -6.53660    0.45863    0.95038
H     -2.82515   -2.67087    1.16109
H     -3.42596    5.59556    6.37454
H     -5.64947   -2.99459   -2.53259
H     -7.05746    0.91436   -1.45181
H     -5.48281    2.96716    3.64047
H     -9.83679    6.60049    3.82485
H     -8.83601    5.68576    2.60151
H     -6.95134    7.36283    2.87601
H     -7.94997    8.29111    4.09414
H     -8.05393    6.25214    5.55751
H     -6.36162   -1.76375    2.65118
H     -5.04844   -2.82213    2.13618
H     -6.57203    4.86818    3.22804
H     -7.16584    4.03100    4.66549
