20   
Generated by ForceBalance from scan.xyz: Frame 1 of 24
C        5.8559457190   -0.0246449265    1.3625865781
C        4.4766953148    0.1557581222    1.4928779408
C        6.3672792040   -0.4789736499    0.1414539969
C        3.6051583010   -0.1078663760    0.4321890267
C        5.5120021007   -0.7473363832   -0.9251180319
C        0.0095230270   -1.2600274717   -2.8190555538
C       -0.1312218516   -0.6122639063   -1.6363205532
C        4.1218667214   -0.5676884700   -0.7912550631
C        1.9734609027   -0.9277867033   -2.0674208987
N        1.3616989843   -1.4666617714   -3.0904096876
N        3.3316373514   -0.8512633116   -1.9200576298
O        1.1512352423   -0.3848734431   -1.1334673413
H        6.5214124300    0.1852038853    2.1949326481
H        4.0630781677    0.5093108540    2.4339906703
H        7.4367386606   -0.6267115179    0.0161060947
H        2.5421117287    0.0444201122    0.5570245427
H        5.9197554480   -1.0996859146   -1.8706879664
H       -0.7617789835   -1.6004088451   -3.4968095272
H       -0.9507301511   -0.2621029556   -1.0287457901
H        3.8099337924   -1.2730372353   -2.7065552542
20   
Generated by ForceBalance from scan.xyz: Frame 2 of 24
C        6.1010819053    0.6540776207    0.5973831104
C        4.9912434706    1.2877690679    0.0325450523
C        6.1757227869   -0.7428302611    0.5582851747
C        3.9631127112    0.5542528830   -0.5665773571
C        5.1572565669   -1.4886098108   -0.0325610175
C       -0.3033721628   -1.4724429560   -2.0282674259
C        0.0891323460   -0.1942619192   -2.2542830872
C        4.0386832720   -0.8481103851   -0.5965522125
C        1.7645796857   -1.3694366368   -1.5294934861
N        0.7736975788   -2.2210464376   -1.5528679962
N        3.0607896400   -1.6708956978   -1.1954778421
O        1.4444487413   -0.1139233836   -1.9390798338
H        6.8943393319    1.2359308043    1.0577588875
H        4.9185552628    2.3722483089    0.0515581861
H        7.0294197359   -1.2577512274    0.9910841149
H        3.1187218636    1.0677359695   -1.0062602709
H        5.2247639625   -2.5745842414   -0.0571784745
H       -1.2831917133   -1.9109885415   -2.1611329648
H       -0.3792045498    0.7187444842   -2.5870531491
H        3.1524590405   -2.6604436382   -0.9981460243
20   
Generated by ForceBalance from scan.xyz: Frame 3 of 24
C        6.0506456433    0.6426621615    0.6516703257
C        4.9427424777    1.2708984236    0.0764311244
C        6.1577339757   -0.7500645181    0.5700415614
C        3.9488116393    0.5341041353   -0.5740231050
C        5.1722353770   -1.4985011132   -0.0726532927
C       -0.3158101613   -1.4171708417   -1.8763318772
C        0.1173299500   -0.2086994764   -2.3148810611
C        4.0560748012   -0.8637558153   -0.6444352432
C        1.7906892101   -1.3660523171   -1.5610933065
N        0.7628345011   -2.1487684743   -1.3769573903
N        3.1058055791   -1.6830990750   -1.3030679454
O        1.4937374989   -0.1641635327   -2.1260418038
H        6.8179196378    1.2261101735    1.1523749784
H        4.8456257556    2.3524035522    0.1276747888
H        7.0108675734   -1.2599447825    1.0098986486
H        3.1055011912    1.0423603925   -1.0238791980
H        5.2644830462   -2.5813183944   -0.1309343074
H       -1.3226069118   -1.8123495148   -1.8670105725
H       -0.3373334250    0.6738919338   -2.7372493300
H        3.1759636488   -2.6650561408   -1.0604311626
20   
Generated by ForceBalance from scan.xyz: Frame 4 of 24
C        5.9864095458    0.6304903656    0.6911419610
C        4.8743490704    1.2492027011    0.1130854371
C        6.1348773288   -0.7549127743    0.5641573672
C        3.9169878500    0.5070563589   -0.5842104819
C        5.1854314268   -1.5078805268   -0.1269396085
C       -0.3085545942   -1.3153103653   -1.7487394707
C        0.1505622550   -0.2180124625   -2.4025638802
C        4.0657573644   -0.8830889636   -0.6998034984
C        1.8187173980   -1.3620844368   -1.6161661275
N        0.7702287813   -2.0328114476   -1.2291855227
N        3.1449668732   -1.6980094784   -1.4143593084
O        1.5346146071   -0.2396186482   -2.3350345449
H        6.7257165041    1.2165504852    1.2295017059
H        4.7457810203    2.3251446395    0.1997415682
H        6.9924895102   -1.2556970628    1.0058263193
H        3.0685175557    1.0064124675   -1.0367556778
H        5.3093646749   -2.5848808775   -0.2218687023
H       -1.3303531953   -1.6362481300   -1.5979761549
H       -0.2934167771    0.6183409009   -2.9202202207
H        3.2014169196   -2.6742812199   -1.1442740406
20   
Generated by ForceBalance from scan.xyz: Frame 5 of 24
C        5.9360222379    0.6236520705    0.7194476704
C        4.7885474808    1.2139845271    0.1820052644
C        6.1500847856   -0.7455179828    0.5261771538
C        3.8607628361    0.4568105794   -0.5384482763
C        5.2318855313   -1.5115558516   -0.1929453321
C       -0.2671524102   -1.1545321579   -1.6518255875
C        0.2191839651   -0.2408255211   -2.5319253360
C        4.0771997005   -0.9160301049   -0.7238672033
C        1.8554728682   -1.3648583244   -1.6566975296
N        0.7955514036   -1.8546655293   -1.0800604013
N        3.1811237384   -1.7323391377   -1.4720918894
O        1.5935090755   -0.3705344768   -2.5549210189
H        6.6519272959    1.2193258862    1.2785121217
H        4.6078580256    2.2767105081    0.3220913705
H        7.0364756550   -1.2229409748    0.9358411318
H        2.9797176440    0.9331710316   -0.9547646918
H        5.4084246725   -2.5745689905   -0.3441573741
H       -1.2940418897   -1.3521151125   -1.3757053416
H       -0.2059839676    0.5182287883   -3.1708148730
H        3.2257275491   -2.7037638296   -1.1820974535
20   
Generated by ForceBalance from scan.xyz: Frame 6 of 24
C        5.8868200748    0.6128405293    0.7520049996
C        4.7291316725    1.1894169821    0.2208041093
C        6.1378690891   -0.7443565716    0.5226318531
C        3.8288432340    0.4284261231   -0.5291508163
C        5.2466719062   -1.5139517163   -0.2266923835
C       -0.2265773139   -1.0292121909   -1.5399020378
C        0.2206987925   -0.3014255746   -2.5982618376
C        4.0831618636   -0.9323211628   -0.7523459537
C        1.8766840075   -1.3648823914   -1.6831822140
N        0.8505635385   -1.6887918818   -0.9508212119
N        3.2118749389   -1.7365606049   -1.5418111021
O        1.5759142842   -0.5113773590   -2.7086446937
H        6.5818223397    1.2102023509    1.3351334257
H        4.5195188048    2.2425547416    0.3899829751
H        7.0323960019   -1.2100421902    0.9281923174
H        2.9362266184    0.8918691054   -0.9376092232
H        5.4517249509   -2.5676164620   -0.4051594064
H       -1.2324264619   -1.1189676322   -1.1525160200
H       -0.2294770875    0.3618576515   -3.3214784548
H        3.2787016171   -2.7178095684   -1.2911058940
20   
Generated by ForceBalance from scan.xyz: Frame 7 of 24
C        5.9768748505    0.6541323958    0.6455890554
C        4.6414876685    1.0649943458    0.7173948447
C        6.2778802374   -0.5834302422    0.0679789611
C        3.6130027679    0.2591400142    0.2235427325
C        5.2602603513   -1.3951592111   -0.4377859360
C       -0.1965503187   -0.5497127242   -1.8450483829
C        0.3073547489   -1.0111390659   -3.0188924585
C        3.9246340343   -0.9731710077   -0.3689157297
C        1.7393811448   -1.3331138429   -1.4134888334
N        0.7174292147   -0.7899960929   -0.8191737802
N        2.9042865954   -1.8418592554   -0.8570681240
O        1.5685783299   -1.5149561154   -2.7618558805
H        6.7694485010    1.2858224321    1.0366097890
H        4.3918261139    2.0207757454    1.1711463524
H        7.3092774477   -0.9205478265    0.0045037302
H        2.5769657707    0.5716489312    0.3015641396
H        5.5034257290   -2.3549886242   -0.8900729570
H       -1.1541597654   -0.0846819463   -1.6539857568
H       -0.0434407538   -1.0761682145   -4.0375820970
H        3.2873410084   -2.5788323050   -1.4404516928
20   
Generated by ForceBalance from scan.xyz: Frame 8 of 24
C        5.9618181244    0.6262566268    0.7236034721
C        4.6304095279    1.0509949207    0.7797638100
C        6.2631045519   -0.5899600218    0.1018156392
C        3.6036064630    0.2810310560    0.2274947851
C        5.2485268568   -1.3656821154   -0.4616285561
C       -0.2107502860   -0.4664672024   -1.8616302342
C        0.1562398532   -1.1397052534   -2.9811117502
C        3.9158706621   -0.9293683869   -0.4088044463
C        1.7255372447   -1.2728604320   -1.4810327635
N        0.7898697042   -0.5818556919   -0.8950714518
N        2.9085780779   -1.7668201100   -0.9648168481
O        1.4192666843   -1.6658475979   -2.7556104860
H        6.7517418787    1.2305080260    1.1606642027
H        4.3811103273    1.9903943550    1.2667503427
H        7.2915248823   -0.9378527664    0.0495205583
H        2.5704553643    0.6037373831    0.2901191047
H        5.4914208778   -2.3092147396   -0.9471742192
H       -1.1257493795    0.0763014178   -1.6666592284
H       -0.2908010075   -1.3494205485   -3.9405492918
H        3.2910978264   -2.4905282056   -1.5637122458
20   
Generated by ForceBalance from scan.xyz: Frame 9 of 24
C        5.9656120112    0.5971451924    0.7984534526
C        4.6376297300    1.0338864589    0.8286255217
C        6.2741881271   -0.5972848581    0.1384809853
C        3.6196810663    0.2992066455    0.2146147439
C        5.2704135434   -1.3385942010   -0.4856405234
C       -0.1943973991   -0.4197435933   -1.8856829799
C        0.0578088089   -1.2561652046   -2.9224925120
C        3.9397141870   -0.8906023827   -0.4569540287
C        1.7453846843   -1.2346031945   -1.5503464942
N        0.8834884922   -0.4281679482   -0.9969893016
N        2.9534739785   -1.6966682687   -1.0804953584
O        1.3240441089   -1.7940601681   -2.7242678191
H        6.7472568126    1.1749376622    1.2835578932
H        4.3826855496    1.9571294633    1.3428404178
H        7.3001143246   -0.9545927992    0.1042970825
H        2.5897841733    0.6334855762    0.2521745209
H        5.5194030644   -2.2652699024   -0.9998330723
H       -1.0751150570    0.1795232232   -1.6984058267
H       -0.4704421102   -1.5791980815   -3.8059638907
H        3.3358875635   -2.4258256862   -1.6713080113
20   
Generated by ForceBalance from scan.xyz: Frame 10 of 24
C        5.9504880056    0.5694786017    0.8650073507
C        4.6292216049    1.0258191185    0.8505596597
C        6.2700023900   -0.6110993253    0.1849413395
C        3.6265623941    0.3267311574    0.1726585169
C        5.2830643822   -1.3189565483   -0.5002247897
C       -0.1934629307   -0.4061039609   -1.9063134056
C       -0.0235859057   -1.3573129324   -2.8563163034
C        3.9575980095   -0.8514950805   -0.5150427405
C        1.7580235372   -1.2098236030   -1.6176189512
N        0.9485211281   -0.3250042306   -1.1043418203
N        2.9989485024   -1.6247520878   -1.2079537826
O        1.2500408434   -1.8923733594   -2.6868574606
H        6.7189305658    1.1215824122    1.3986593201
H        4.3663946505    1.9393758448    1.3779498935
H        7.2909984729   -0.9838114925    0.1842367879
H        2.6027927252    0.6793563372    0.1716883185
H        5.5397993346   -2.2360226018   -1.0277177156
H       -1.0533159386    0.2250902260   -1.7271185897
H       -0.6144208476   -1.7671531740   -3.6604392631
H        3.3779290569   -2.3656482757   -1.7847736356
20   
Generated by ForceBalance from scan.xyz: Frame 11 of 24
C        5.9404812897    0.5367193704    0.9315994871
C        4.6285959642    1.0158074971    0.8759548480
C        6.2692406291   -0.6279273761    0.2284252212
C        3.6441225190    0.3560609673    0.1347627972
C        5.3010291634   -1.2982693737   -0.5175623057
C       -0.1893089230   -0.3981071280   -1.9171074575
C       -0.0791427279   -1.4383970096   -2.7777216971
C        3.9834920583   -0.8093428833   -0.5715665119
C        1.7767607475   -1.1808279155   -1.6733517617
N        1.0030300528   -0.2404316335   -1.2040076620
N        3.0505380316   -1.5416422364   -1.3325092317
O        1.2031542001   -1.9633990465   -2.6354197311
H        6.6946975083    1.0593566158    1.5130571585
H        4.3586742279    1.9183057682    1.4186136640
H        7.2833130765   -1.0179293329    0.2582463666
H        2.6287804436    0.7293854822    0.0979132552
H        5.5651762134   -2.2035461627   -1.0615530761
H       -1.0365129390    0.2525113738   -1.7472860914
H       -0.7176268782   -1.9197304133   -3.5017287354
H        3.4187496701   -2.3146867261   -1.8714613162
20   
Generated by ForceBalance from scan.xyz: Frame 12 of 24
C        5.9262174295    0.5006214396    0.9830010897
C        4.6285193235    1.0099539317    0.8822860486
C        6.2623853580   -0.6507167752    0.2615291796
C        3.6650764094    0.3937533930    0.0786497254
C        5.3147591687   -1.2784728303   -0.5451958334
C       -0.1889730385   -0.3970743438   -1.9216924375
C       -0.1175385568   -1.5024409312   -2.7012863340
C        4.0102340815   -0.7612553787   -0.6422273315
C        1.7972378654   -1.1425580889   -1.7343756278
N        1.0434207732   -0.1686366817   -1.3017093470
N        3.1031145924   -1.4440318504   -1.4737138328
O        1.1768912567   -2.0060765418   -2.5925513986
H        6.6641955978    0.9905344323    1.6118311095
H        4.3535314530    1.9035450267    1.4370163339
H        7.2657452839   -1.0637266441    0.3250862372
H        2.6617120649    0.7926844972    0.0042043642
H        5.5846015496   -2.1733607106   -1.1033735322
H       -1.0325913247    0.2587616262   -1.7541266936
H       -0.7918426031   -2.0456460272   -3.3445204195
H        3.4465859626   -2.2698621745   -1.9458669892
20   
Generated by ForceBalance from scan.xyz: Frame 13 of 24
C        5.9015890662    0.4606928865    1.0345434269
C        4.6220992212    1.0045685450    0.8905392678
C        6.2438138012   -0.6784302933    0.2967911959
C        3.6830905153    0.4335751370    0.0267925120
C        5.3193619820   -1.2621012582   -0.5680643233
C       -0.1895747233   -0.3999958507   -1.9154798255
C       -0.1426107038   -1.5636913592   -2.6072847605
C        4.0324780737   -0.7119616786   -0.7066333478
C        1.8168569175   -1.1013690785   -1.7835417327
N        1.0729634287   -0.1025133591   -1.3935141004
N        3.1508088127   -1.3424241618   -1.6070019778
O        1.1639723157   -2.0404248071   -2.5312714638
H        6.6217641275    0.9158168783    1.7085429265
H        4.3433833357    1.8901953780    1.4560893917
H        7.2335380370   -1.1170523184    0.3937609602
H        2.6946162061    0.8604965295   -0.0840360487
H        5.5935261991   -2.1479890548   -1.1383610909
H       -1.0339308780    0.2560362482   -1.7525159265
H       -0.8421223769   -2.1654358511   -3.1659717181
H        3.4717878055   -2.2099744673   -2.0167571488
20   
Generated by ForceBalance from scan.xyz: Frame 14 of 24
C        5.8712719285    0.4108957274    1.0813676061
C        4.6094864514    0.9860933566    0.9047029865
C        6.2198820836   -0.7109319425    0.3208808094
C        3.6954239219    0.4627647732   -0.0141228769
C        5.3184101407   -1.2485471936   -0.5972185257
C       -0.1872005284   -0.3933159489   -1.9265342536
C       -0.1563384124   -1.6218809321   -2.4973884986
C        4.0492441897   -0.6686600031   -0.7660978192
C        1.8345284024   -1.0565882634   -1.8287101224
N        1.0968389318   -0.0284447190   -1.5119107336
N        3.1886862387   -1.2455044153   -1.7271763758
O        1.1579488527   -2.0758574777   -2.4374800952
H        6.5731729416    0.8297375448    1.7969177133
H        4.3267863447    1.8602411075    1.4858799613
H        7.1962037318   -1.1729262234    0.4421255420
H        2.7226221739    0.9171791651   -0.1540959455
H        5.5971062985   -2.1220274777   -1.1841793946
H       -1.0325149750    0.2669948001   -1.7876451088
H       -0.8733165514   -2.2834153394   -2.9578102824
H        3.4915621075   -2.1381774517   -2.0968386843
20   
Generated by ForceBalance from scan.xyz: Frame 15 of 24
C        5.8449936866    0.3573493545    1.1253621171
C        4.6037639472    0.9672876390    0.9191546093
C        6.1982196357   -0.7484865229    0.3444666093
C        3.7161823661    0.4929471825   -0.0504677005
C        5.3201949119   -1.2385357257   -0.6227582165
C       -0.1749124828   -0.3802748156   -1.9425116789
C       -0.1492077735   -1.6700326630   -2.3596307924
C        4.0723708175   -0.6250958929   -0.8200206221
C        1.8620092837   -1.0013368134   -1.8698796062
N        1.1221743020    0.0496553873   -1.6519247605
N        3.2303593984   -1.1438900380   -1.8364660898
O        1.1731435670   -2.0957549033   -2.3128779039
H        6.5280669842    0.7384807913    1.8792058058
H        4.3190103162    1.8309134620    1.5148568471
H        7.1587929976   -1.2362365787    0.4885766196
H        2.7612290386    0.9767584944   -0.2172157600
H        5.6010977060   -2.1014041482   -1.2241494193
H       -1.0243935951    0.2816095152   -1.8417564681
H       -0.8761246344   -2.3908201726   -2.7001884135
H        3.5258162057   -2.0464764435   -2.1900495615
20   
Generated by ForceBalance from scan.xyz: Frame 16 of 24
C        5.8107168285    0.2994919407    1.1680926995
C        4.5845820694    0.9327750696    0.9403460367
C        6.1798993851   -0.7807582658    0.3598759630
C        3.7296371359    0.5043046438   -0.0782382268
C        5.3318836169   -1.2253259332   -0.6559755828
C       -0.1483549201   -0.3732068471   -1.9951048293
C       -0.1142609932   -1.7130161126   -2.2070630836
C        4.0997816251   -0.5901678719   -0.8737497145
C        1.9027646600   -0.9492677493   -1.9274531060
N        1.1520254306    0.1118889573   -1.8454093028
N        3.2809794013   -1.0519310454   -1.9423696531
O        1.2140232046   -2.1087185068   -2.1593275346
H        6.4701337922    0.6441736921    1.9596027148
H        4.2885398336    1.7783549038    1.5560814023
H        7.1293130179   -1.2849800511    0.5204376313
H        2.7886444925    1.0095112539   -0.2647410194
H        5.6244496308   -2.0694693217   -1.2779646352
H       -1.0055359705    0.2853614754   -1.9581764347
H       -0.8422659585   -2.4858471747   -2.3996114430
H        3.5745395112   -1.9574052280   -2.2926502083
20   
Generated by ForceBalance from scan.xyz: Frame 17 of 24
C        5.7691476203    0.2404105405    1.2105526396
C        4.5488004489    0.8808582973    0.9700257014
C        6.1662552282   -0.8065700276    0.3727474210
C        3.7283552522    0.4900909708   -0.0907283862
C        5.3509663269   -1.2128373084   -0.6857797840
C       -0.1165722320   -0.3896345385   -2.0650708607
C       -0.0603196321   -1.7458154503   -2.0169072869
C        4.1254396345   -0.5713687743   -0.9167853251
C        1.9493266584   -0.9133710857   -1.9863830716
N        1.1777036863    0.1302350741   -2.0763245981
N        3.3345039085   -0.9822881877   -2.0300980238
O        1.2728075355   -2.1057344618   -1.9552073178
H        6.4025544444    0.5545665738    2.0352793175
H        4.2317430387    1.7016249003    1.6084413180
H        7.1116965780   -1.3150944188    0.5431432140
H        2.7933455263    1.0039991823   -0.2876146317
H        5.6644719011   -2.0317301538   -1.3308131083
H       -0.9858529674    0.2518944910   -2.1157466547
H       -0.7806528379   -2.5495772573   -2.0272792460
H        3.6370028393   -1.8804368990   -2.3934225169
20   
Generated by ForceBalance from scan.xyz: Frame 18 of 24
C        5.7707846135    0.3490704280    1.1094499076
C        4.3803086189    0.4643182940    1.1988057992
C        6.3248202746   -0.4271786413    0.0856207063
C        3.5470269163   -0.1816892346    0.2820082131
C        5.5020027933   -1.0793152513   -0.8338917695
C        0.1728525872   -0.3296853462   -2.5679618505
C       -0.1431956666   -1.1453393638   -1.5263757128
C        4.1072871648   -0.9553025473   -0.7444864263
C        1.9899224085   -1.2369752357   -1.9115083521
N        1.5477615334   -0.3833119053   -2.7890086245
N        3.2961303156   -1.6614245460   -1.6790784411
O        1.0172925054   -1.7454764224   -1.0954377769
H        6.4124493293    0.8554268709    1.8248360652
H        3.9342877468    1.0639085752    1.9882441025
H        7.4037039609   -0.5282375838   -0.0000307505
H        2.4692771241   -0.0836457384    0.3667715256
H        5.9401244921   -1.6866425447   -1.6233726345
H       -0.4775280124    0.2965653855   -3.1635170142
H       -1.0494662659   -1.4058485812   -1.0006066021
H        3.7800510296   -1.8085231894   -2.5590369894
20   
Generated by ForceBalance from scan.xyz: Frame 19 of 24
C        5.7937510594    0.3108671189    1.1445095720
C        4.4044725923    0.4169650542    1.2569816083
C        6.3356905862   -0.4229529089    0.0835362940
C        3.5589735475   -0.1954105455    0.3278358726
C        5.5019272850   -1.0408170107   -0.8492361986
C        0.1331366892   -0.4582816703   -2.6789359455
C       -0.1373926481   -1.0568881691   -1.4896467543
C        4.1077773838   -0.9244961854   -0.7366078381
C        1.9829170364   -1.2060855443   -1.9251354748
N        1.5018605511   -0.5411249594   -2.9362115951
N        3.2964278559   -1.5927988618   -1.6980283753
O        1.0497123544   -1.5563736827   -0.9921396060
H        6.4436267924    0.7904920481    1.8708195462
H        3.9674298853    0.9825205070    2.0759985880
H        7.4134641914   -0.5175706667   -0.0208479016
H        2.4831097685   -0.1084314524    0.4349016515
H        5.9306240821   -1.6152637272   -1.6679220194
H       -0.5456811204    0.0366218319   -3.3601487891
H       -1.0186754089   -1.2122794129   -0.8860680343
H        3.7761717230   -1.6993121322   -2.5858997125
20   
Generated by ForceBalance from scan.xyz: Frame 20 of 24
C        5.8249098584    0.2707465751    1.1832019200
C        4.4387875934    0.3465057293    1.3457616547
C        6.3420013130   -0.3970770532    0.0677421862
C        3.5704103695   -0.2313670854    0.4153442433
C        5.4865407387   -0.9768086022   -0.8692753748
C        0.0917480997   -0.6035786882   -2.7830070799
C       -0.1546325151   -0.9346210454   -1.4898844130
C        4.0942907311   -0.8915122391   -0.7060684407
C        1.9588195488   -1.1675345395   -1.9233441789
N        1.4560917677   -0.7366697782   -3.0460515050
N        3.2731392948   -1.5227886388   -1.6808651120
O        1.0493904772   -1.3153086191   -0.9190875096
H        6.4912253904    0.7219311352    1.9128118420
H        4.0207107489    0.8591373013    2.2083752415
H        7.4168373562   -0.4679796062   -0.0773564486
H        2.4989313353   -0.1725676360    0.5655000903
H        5.8972476981   -1.4963595921   -1.7327916105
H       -0.6026877817   -0.2650605523   -3.5399405378
H       -1.0207449091   -0.9561115319   -0.8464841554
H        3.7515111223   -1.6477772670   -2.5667522154
20   
Generated by ForceBalance from scan.xyz: Frame 21 of 24
C        5.8370697849    0.2174800734    1.2134221601
C        4.4522880787    0.2951199862    1.3844000743
C        6.3437620383   -0.3953317481    0.0620390128
C        3.5739060070   -0.2261084261    0.4300442511
C        5.4797154826   -0.9171940879   -0.8999203112
C        0.0564627467   -0.7331158043   -2.8894659722
C       -0.1604272679   -0.8262096382   -1.5536036422
C        4.0873151781   -0.8312079901   -0.7277368048
C        1.9484503519   -1.1040097035   -1.9827872028
N        1.4166187090   -0.8966871826   -3.1564287306
N        3.2692762603   -1.4032309331   -1.7337216338
O        1.0652297238   -1.0784928362   -0.9480121393
H        6.5097237514    0.6241417921    1.9630857314
H        4.0415297310    0.7648471993    2.2745339872
H        7.4172453516   -0.4676123732   -0.0918926285
H        2.5047867052   -0.1658930313    0.5888993341
H        5.8835977944   -1.3926884414   -1.7916410989
H       -0.6585340372   -0.5470117678   -3.6794273404
H       -1.0112661795   -0.7398164446   -0.8958217666
H        3.7527909421   -1.5599230316   -2.6109801834
20   
Generated by ForceBalance from scan.xyz: Frame 22 of 24
C        5.8583102829    0.1629601842    1.2547066605
C        4.4746974705    0.2470889606    1.4302340840
C        6.3579287152   -0.3984653649    0.0741507790
C        3.5889729568   -0.2172573798    0.4534703560
C        5.4877473417   -0.8630591220   -0.9104536958
C        0.0315722450   -0.8774367182   -2.9153889511
C       -0.1539274185   -0.7383058877   -1.5792848031
C        4.0948690104   -0.7728778731   -0.7332450347
C        1.9494312979   -1.0591625137   -2.0089919473
N        1.3856913614   -1.0731683260   -3.1878614899
N        3.2806225772   -1.2856575088   -1.7659772686
O        1.0943688923   -0.8625850906   -0.9715492125
H        6.5356010412    0.5254150595    2.0226035704
H        4.0694443099    0.6775906217    2.3424711116
H        7.4304045813   -0.4747702912   -0.0847113315
H        2.5217701807   -0.1504119158    0.6165501447
H        5.8866232792   -1.2977817794   -1.8250040578
H       -0.7055521492   -0.8413083228   -3.7061795397
H       -0.9888555865   -0.5519749876   -0.9221634833
H        3.7657495767   -1.4939150166   -2.6307330803
20   
Generated by ForceBalance from scan.xyz: Frame 23 of 24
C        5.8668858714    0.1041721596    1.2919369242
C        4.4836927652    0.1996688116    1.4637957699
C        6.3647356935   -0.4097342156    0.0890184724
C        3.5964438829   -0.2066920699    0.4628913523
C        5.4939004213   -0.8164410572   -0.9197123936
C        0.0063881295   -1.0136930064   -2.9023186020
C       -0.1491977827   -0.6644957664   -1.6015291763
C        4.1002073216   -0.7173307984   -0.7457191177
C        1.9490531903   -1.0223922424   -2.0307318931
N        1.3552398657   -1.2380460359   -3.1762346774
N        3.2912879597   -1.1657341523   -1.8060118106
O        1.1185920965   -0.6701927431   -1.0164183050
H        6.5448961040    0.4221051462    2.0786627032
H        4.0792521293    0.5943474071    2.3924621453
H        7.4368524443   -0.4937739527   -0.0683310596
H        2.5301737178   -0.1283015302    0.6233494342
H        5.8923603358   -1.2130371044   -1.8516335779
H       -0.7510066860   -1.1158637604   -3.6678587374
H       -0.9705273717   -0.3942271176   -0.9567785172
H        3.7757906944   -1.4457052192   -2.6499176251
20   
Generated by ForceBalance from scan.xyz: Frame 24 of 24
C        5.8661746840    0.0335503880    1.3390867642
C        4.4848097678    0.1868485463    1.4807148128
C        6.3710745090   -0.4601061192    0.1305396102
C        3.6047595449   -0.1413104418    0.4453611312
C        5.5082567287   -0.7921649724   -0.9115102665
C        0.0079433754   -1.1469739175   -2.8729690168
C       -0.1377308187   -0.6644335881   -1.6143285815
C        4.1158731568   -0.6368722667   -0.7667624708
C        1.9657668067   -0.9725801816   -2.0549079318
N        1.3595364495   -1.3433490574   -3.1537290283
N        3.3193886131   -0.9951458923   -1.8671354742
O        1.1412447404   -0.5447182353   -1.0654507822
H        6.5374781485    0.2928179710    2.1526036317
H        4.0754578297    0.5689747564    2.4124673801
H        7.4418917704   -0.5883797776   -0.0042181810
H        2.5400895423   -0.0129209254    0.5813240913
H        5.9116405611   -1.1752309797   -1.8469719413
H       -0.7595031625   -1.3698337259   -3.6020337913
H       -0.9578731357   -0.3672859545   -0.9800435459
H        3.8040857515   -1.3387763543   -2.6866724074
