47

C     -2.47497   -2.38984   -4.46224
C     -1.94674   -2.22029   -5.73605
C     -0.63941    1.75976   -0.48504
C     -1.89839   -1.75245   -3.35833
C     -0.85461    2.78204    0.43752
C      0.96327    0.04500   -5.05672
C      1.41749    0.17477   -6.31676
C     -0.81944   -1.40269   -5.89434
C     -0.20731   -0.76343   -4.78982
C     -0.46275    0.44749   -0.04568
C     -0.51934    0.11756    1.32416
C     -0.76576   -0.93863   -3.49056
C     -0.74727    1.14855    2.25390
C     -0.90360    2.46856    1.78926
C     -0.28973   -1.22622   -7.25966
C      0.98819   -1.78008    0.91086
C     -0.29298   -1.35444    1.65801
C     -0.28466   -0.69586   -1.03272
C      0.86432   -1.69095   -0.62339
C     -0.18581   -1.76899    3.13071
C      2.23156   -1.28340   -1.20656
N     -0.22747   -0.23893   -2.40627
O     -0.74826   -1.72063   -8.26738
O      0.83260   -0.41342   -7.39735
O     -0.82143    0.86392    3.58780
O      0.60556   -2.96074   -1.22086
F      3.24400   -1.97085   -0.63662
F      2.32159   -1.47824   -2.53654
F      2.46461    0.04163   -0.97998
Cl    -1.18113    3.74928    2.97197
H     -3.35261   -3.01308   -4.31398
H     -2.38151   -2.69523   -6.60822
H     -0.63402    1.98064   -1.54574
H     -2.35899   -1.88886   -2.38591
H     -0.99140    3.80925    0.11525
H      1.52618    0.54577   -4.27891
H      2.29024    0.75108   -6.60231
H      1.80044   -1.14008    1.26524
H      1.26930   -2.80663    1.16637
H     -1.14277   -1.91423    1.23505
H     -1.17646   -1.31882   -0.93843
H      0.64676   -1.26845    3.63123
H     -0.01417   -2.84991    3.18136
H     -1.09469   -1.53954    3.68671
H      0.61187    0.27913   -2.62020
H     -0.97979    1.69456    4.07206
H      0.04325   -3.47209   -0.61882
