60

C      5.02569   -6.77414    1.08153
C      8.41622   -6.02724   -0.25204
C      8.11461   -5.17494   -1.32000
C      7.38356   -6.53019    0.53553
C      6.79068   -4.82698   -1.59039
C      3.44726   -4.47959   -0.13204
C      3.88713   -4.94297   -2.45864
C      2.15340   -4.08844   -0.45482
C      2.59063   -4.54657   -2.78333
C      0.81626   -2.28244   -4.12977
C     -1.42124   -3.26602   -5.45710
C      6.04824   -6.18169    0.26231
C      4.33832   -4.91556   -1.12977
C      5.72986   -5.31352   -0.80965
C      1.70263   -4.10801   -1.78694
C      0.00945   -3.24803   -3.51227
C     -1.12763   -3.73961   -4.17708
C      0.50309   -1.79252   -5.39608
C     -0.61858   -2.30531   -6.07782
C      0.31723   -3.69794   -2.13041
C     -2.51353   -2.55980   -0.50122
C     -1.97176   -4.77969   -3.49129
C     -2.73232   -4.22298   -2.27874
C     -3.29791   -5.35687   -1.41549
C     -2.27211   -1.39973    1.63514
C      0.71991    0.46353   -6.07464
C     -0.04820   -2.16738   -8.37823
N      4.23191   -7.27864    1.76979
N     -0.55507   -3.72893   -1.17091
N     -1.86273   -3.30610   -1.49900
N     -1.69110   -2.05144    0.47073
O     -3.72439   -2.33178   -0.55979
O      1.32211   -0.83922   -5.96697
O     -0.97819   -1.85166   -7.32686
H      9.44571   -6.29827   -0.03674
H      8.91309   -4.77296   -1.93782
H      7.59423   -7.20367    1.36056
H      6.56962   -4.14392   -2.40530
H      3.77436   -4.43065    0.90168
H      4.54723   -5.30456   -3.24239
H      1.47622   -3.76112    0.32619
H      2.26235   -4.59424   -3.81638
H      1.68895   -1.87819   -3.62555
H     -2.28432   -3.63826   -6.00278
H     -2.70284   -5.20495   -4.18448
H     -1.33282   -5.60749   -3.16066
H     -3.55011   -3.59089   -2.62876
H     -2.48689   -5.95384   -0.98525
H     -3.92596   -6.01812   -2.02306
H     -3.91089   -4.95238   -0.60755
H     -1.49227   -0.83146    2.14908
H     -2.71829   -2.11473    2.33902
H     -3.05420   -0.71389    1.30680
H      1.47535    1.11066   -6.52443
H      0.45518    0.84256   -5.08046
H     -0.17254    0.43508   -6.70734
H     -0.47919   -1.75830   -9.29377
H      0.05595   -3.25471   -8.47636
H      0.93109   -1.71790   -8.19103
H     -0.79075   -2.50666    0.55990
