24   

C       -1.2781332487   -1.2659349127    2.3558986294
C       -3.7704651782    0.3022876248    3.2429989882
C       -4.9904586694    0.8868078555    1.2460867111
C       -4.9035444945    0.6000857686    4.0100538200
C       -6.1162767095    1.1835533291    2.0224739473
C       -3.7937011450    0.4228059300    1.8364152359
C       -6.0854768572    1.0382905647    3.4100906663
C       -2.6854717471    0.1432730852    0.9320187222
C       -0.4559271910   -0.7175776016    0.1276013552
C       -1.5263417131   -0.5549163862    1.1402471041
C       -1.0324562265    0.8666833628   -3.0389168443
N       -1.0334156263   -1.8567816941    3.3295631393
N       -0.3204895643   -0.2232663815   -1.0864960251
O       -1.2756939278    0.6523607727   -1.6485691261
Cl      -7.4929702358    1.4058288991    4.3761373116
H       -2.8886307745    0.0053575378    3.7917382860
H       -5.0602634202    1.0115530203    0.1713311381
H       -4.8640934434    0.4952640316    5.0881817432
H       -7.0266494283    1.5292511730    1.5467674656
H       -2.8809219458    0.4903962619   -0.0686529430
H        0.3705345179   -1.3538496192    0.4251933224
H       -1.8512178861    1.4481164538   -3.4719853966
H       -0.9637280670   -0.0906581181   -3.5652377621
H       -0.0962264026    1.4162952061   -3.1748883964
24   

C       -1.4370500587   -1.3674280984    2.3135913936
C       -3.6799363846    0.5025461535    3.2273298703
C       -5.0665872739    0.7147059799    1.2621347233
C       -4.7930802433    0.7732117824    4.0322174798
C       -6.1729449908    0.9859043324    2.0754934520
C       -3.7981109251    0.4577746500    1.8240668906
C       -6.0477929449    1.0141379956    3.4665687360
C       -2.7027396075    0.1672812213    0.9032968785
C       -0.5344299670   -0.8381985904    0.1035018602
C       -1.6012822411   -0.6175782986    1.1064087115
C       -0.9013557804    0.9824961669   -2.9645154388
N       -1.2691804611   -1.9827302847    3.2881990996
N       -0.3377566116   -0.3005019029   -1.0828507812
O       -1.1973889052    0.6953266841   -1.5976854450
Cl      -7.4312333924    1.3494858535    4.4780149269
H       -2.7288247707    0.3545981500    3.7228714880
H       -5.2027364398    0.6943090756    0.1867023345
H       -4.6827218884    0.8004732069    5.1101122803
H       -7.1416147136    1.1739991124    1.6273370768
H       -2.9001451448    0.5056851275   -0.1014659836
H        0.2248736378   -1.5604323499    0.3830328558
H       -1.6611152833    1.6539562074   -3.3742029657
H       -0.8919512457    0.0601611980   -3.5540315449
H        0.0776624076    1.4647875288   -3.0420550644
24   

C       -1.5991351346   -1.4130351126    2.2555267355
C       -3.6268551096    0.6896177328    3.1728113001
C       -5.1322617909    0.5678907268    1.2889344638
C       -4.7156453709    0.9246418558    4.0206965565
C       -6.2155477637    0.8044210665    2.1435724054
C       -3.8174139897    0.5104993856    1.7909041406
C       -6.0178714046    0.9845279854    3.5157022685
C       -2.7281872320    0.2210183677    0.8545898188
C       -0.6435334680   -0.9400532217    0.0486616766
C       -1.6954988140   -0.6509689387    1.0481759948
C       -0.7882334096    1.0453817343   -2.9354857137
N       -1.4895812693   -2.0363196006    3.2332356035
N       -0.3925512479   -0.3866123351   -1.1196726042
O       -1.1579375760    0.6991872892   -1.6006919815
Cl      -7.3721611084    1.2766817423    4.5786806591
H       -2.6321798730    0.6612565290    3.6027764974
H       -5.3177566009    0.4207905867    0.2309041376
H       -4.5506784170    1.0609541417    5.0831810962
H       -7.2220871251    0.8447639411    1.7438792138
H       -2.9196161421    0.5711518261   -0.1482331635
H        0.0483626857   -1.7316676663    0.3148025293
H       -1.4819907010    1.7935389415   -3.3290286314
H       -0.8201347339    0.1616272204   -3.5806508896
H        0.2245821729    1.4591391508   -2.9480130343
24   

C       -1.7518905494   -1.4519599018    2.1933337456
C       -3.5937308438    0.8741203770    3.1105009409
C       -5.1726508497    0.4069260850    1.3454396928
C       -4.6544891145    1.0786830995    4.0006073573
C       -6.2292762328    0.6134747807    2.2405872900
C       -3.8387049712    0.5525955059    1.7658020581
C       -5.9805550123    0.9541278018    3.5741052802
C       -2.7520809865    0.2687134559    0.8132435211
C       -0.7571608840   -1.0257605124   -0.0111796722
C       -1.7896336607   -0.6794248021    0.9890873290
C       -0.6707239421    1.1059923513   -2.8953719876
N       -1.6921785284   -2.0864192174    3.1680854889
N       -0.4551399044   -0.4583200819   -1.1602562353
O       -1.1274382244    0.7024067726   -1.6043894864
Cl      -7.3010480067    1.2098806872    4.6877784371
H       -2.5748346524    0.9683276632    3.4697468519
H       -5.3909425005    0.1284954514    0.3206157057
H       -4.4496261094    1.3308649980    5.0345342043
H       -7.2535814729    0.5035587142    1.9041733501
H       -2.9304427741    0.6459120588   -0.1827616601
H       -0.1317641880   -1.8762352407    0.2372132958
H       -1.2939913652    1.9230891270   -3.2692484458
H       -0.7284136759    0.2687175804   -3.5981174499
H        0.3663352985    1.4496761019   -2.8352070913
24   

C       -1.9064549218   -1.5585777787    2.0808451871
C       -3.5779650013    1.0390702219    3.0225236336
C       -5.1808993591    0.2010525089    1.4263857924
C       -4.6077800701    1.2362335609    3.9500048666
C       -6.2077313418    0.3995255635    2.3573965059
C       -3.8562014732    0.5427831302    1.7410110205
C       -5.9319120242    0.9239259895    3.6246641323
C       -2.7725416628    0.2719534532    0.7684737499
C       -0.8528967997   -1.1059748164   -0.0954964030
C       -1.8775702890   -0.7419811384    0.9056471864
C       -0.5605132126    1.1794755685   -2.8450268059
N       -1.9046085705   -2.2349455671    3.0288231826
N       -0.4972870536   -0.5024180392   -1.2101584239
O       -1.0895752072    0.7193043721   -1.6015135220
Cl      -7.2150541530    1.1732679309    4.7825847815
H       -2.5558531938    1.2725837953    3.2994450018
H       -5.4141079769   -0.2211792348    0.4554374586
H       -4.3803655454    1.6287895172    4.9342080918
H       -7.2284537354    0.1405193570    2.1015271762
H       -2.9162733713    0.7251311197   -0.2013489453
H       -0.2861365923   -2.0050608344    0.1201217220
H       -1.1225778074    2.0538206876   -3.1848873611
H       -0.6364366283    0.3945630892   -3.6041578466
H        0.4907043229    1.4583247088   -2.7247654604
24   

C       -2.1254355611   -1.7787413074    1.9040758714
C       -3.6097717145    1.2638002870    2.9019943162
C       -5.1495685352   -0.0083291454    1.5500893830
C       -4.6310384479    1.5135368883    3.8265902788
C       -6.1683166545    0.2432857450    2.4769985341
C       -3.8589542731    0.5002980384    1.7545949253
C       -5.9190986061    1.0069413506    3.6225059289
C       -2.7809228899    0.2383431729    0.7674248840
C       -0.8697147101   -1.1465563874   -0.1158554676
C       -1.9584923745   -0.8398663736    0.8366322714
C       -0.4845338986    1.2011772659   -2.8020510175
N       -2.2379956115   -2.5588346607    2.7613365053
N       -0.4638322307   -0.5048651940   -1.1915559198
O       -1.0908869739    0.6869360594   -1.6165699160
Cl      -7.1914175345    1.3206553729    4.7767144754
H       -2.6165053156    1.6608554797    3.0790605053
H       -5.3598256933   -0.6059864829    0.6702101037
H       -4.4262995111    2.1025340042    4.7129397604
H       -7.1614643588   -0.1577130676    2.3118088569
H       -2.6925992762    0.9817208589   -0.0099486178
H       -0.3055667904   -2.0481228426    0.0962717218
H       -0.9863669033    2.1251764432   -3.1026190929
H       -0.5678607242    0.4728128698   -3.6145549191
H        0.5734455674    1.4155949089   -2.6221526996
24   

C       -2.3063123218   -1.9825933822    1.6969343754
C       -3.6717555319    1.4761745973    2.7343947071
C       -5.0763208709   -0.1945997034    1.7163771697
C       -4.6955002523    1.7836840086    3.6387577846
C       -6.0987418945    0.1147395628    2.6213244931
C       -3.8383306949    0.4617330580    1.7819738871
C       -5.9162884726    1.1028808547    3.5939854030
C       -2.7806753832    0.1955036753    0.7805720432
C       -0.8901399494   -1.1814816528   -0.1501976955
C       -2.0252426290   -0.9344989748    0.7637023620
C       -0.4536924169    1.2974080136   -2.7065794945
N       -2.5170797804   -2.8521914259    2.4422380124
N       -0.4522233840   -0.4806244527   -1.1750471781
O       -1.1127340371    0.6970010762   -1.5916081469
Cl      -7.1909638431    1.4861294288    4.7243312761
H       -2.7365061615    2.0225689702    2.7816076283
H       -5.2405971817   -0.9579871820    0.9639045857
H       -4.5464895374    2.5572008134    4.3830358477
H       -7.0433785362   -0.4140363196    2.5709428379
H       -2.4321772564    1.0721402334    0.2547333902
H       -0.3299631659   -2.0915037717    0.0344538826
H       -0.9050222567    2.2697444368   -2.9228687255
H       -0.5509424858    0.6571383531   -3.5885392474
H        0.6087541962    1.4428805823   -2.4870857249
24   

C       -2.4040596818   -2.0905854192    1.5690703154
C       -3.7329975485    1.6025715014    2.5981902985
C       -4.9901181546   -0.3179667533    1.8742243134
C       -4.7551940976    1.9314179512    3.4966952512
C       -6.0107873371    0.0125295635    2.7735573759
C       -3.8186970429    0.4536530014    1.7981605649
C       -5.9006002322    1.1364962640    3.5973317920
C       -2.7702458919    0.1739658063    0.8026811958
C       -0.9662607596   -1.2431528692   -0.2355172023
C       -2.0825399778   -0.9979280298    0.7024905639
C       -0.3866825867    1.3836336059   -2.6097756585
N       -2.6545756295   -2.9976026293    2.2551709120
N       -0.4946403113   -0.5007034085   -1.2152866931
O       -1.0914600771    0.7353596358   -1.5509500637
Cl      -7.1731987770    1.5466612145    4.7205350190
H       -2.8596600008    2.2416816287    2.5326990455
H       -5.1095471652   -1.1859579270    1.2351586295
H       -4.6640960358    2.8115969215    4.1223920122
H       -6.8989150274   -0.6057363260    2.8329391140
H       -2.3566170658    1.0568516856    0.3384440955
H       -0.4541779833   -2.1915736330   -0.1157116588
H       -0.7796706866    2.3943713542   -2.7507930404
H       -0.5100708023    0.8218870640   -3.5405850480
H        0.6798094811    1.4502096838   -2.3723445551
24   

C       -2.4674502198   -2.1954157876    1.4683331635
C       -3.8028996408    1.6722979058    2.4542654151
C       -4.9153170383   -0.4207628781    2.0429124787
C       -4.8094840440    2.0285663742    3.3595855952
C       -5.9198480328   -0.0618973614    2.9496685663
C       -3.8191535004    0.4288226513    1.8019796723
C       -5.8739379396    1.1625568501    3.6207867897
C       -2.7753754639    0.1255000407    0.8199558773
C       -1.0705515328   -1.3174801808   -0.3452197061
C       -2.1478895431   -1.0738024070    0.6391497175
C       -0.3382557940    1.4421317800   -2.5168289671
N       -2.7180192730   -3.1270492871    2.1207369758
N       -0.5806535526   -0.5442233934   -1.2919591636
O       -1.1077119669    0.7433200646   -1.5381571849
Cl      -7.1273937509    1.6073709830    4.7522896454
H       -2.9935133301    2.3694374007    2.2688564680
H       -5.0068950943   -1.3671525451    1.5225727751
H       -4.7687174332    2.9859244748    3.8658977822
H       -6.7475300772   -0.7374337579    3.1319734352
H       -2.3362521797    1.0043680242    0.3731547996
H       -0.6050007729   -2.2957186485   -0.2951831573
H       -0.6819276251    2.4779513597   -2.5867019596
H       -0.4523118290    0.9636084908   -3.4941427089
H        0.7209915152    1.4404092287   -2.2406453494
24   

C       -2.2733661736   -2.2025437967    1.9976966784
C       -3.9751265148    1.6758226277    2.9373684881
C       -4.7587528948   -0.4140081401    2.0437311949
C       -5.2721267669    1.9787931290    3.3673295651
C       -6.0545338667   -0.1074421944    2.4770084567
C       -3.6820258164    0.4639956177    2.2867020419
C       -6.3232987765    1.0877278233    3.1465561917
C       -2.3100903529    0.2317137599    1.8448447027
C       -0.2624558335   -1.0790282715    1.1797548040
C       -1.6589286615   -0.9563694792    1.6571434247
C        1.3756136757    2.0112717003    0.3903616457
N       -2.7484735388   -3.2341061588    2.2561553592
N        0.5913887247   -0.1690785576    0.7575961390
O        0.2365205955    1.1950062286    0.6634013372
Cl      -7.9409371571    1.4658739240    3.6846561986
H       -3.1855954002    2.3944252251    3.1264784551
H       -4.6279527477   -1.3376237878    1.4949519351
H       -5.4689820860    2.9142072940    3.8780482341
H       -6.8641900858   -0.8020091336    2.2851888390
H       -1.7247146730    1.1367214260    1.8119097484
H        0.1377036999   -2.0870048715    1.1664374602
H        1.0985997523    3.0670590392    0.4575096736
H        1.7503325860    1.8058985520   -0.6168550373
H        2.1712743921    1.8094511552    1.1146112429
24   

C       -2.2782468978   -2.2651927104    1.8152375641
C       -3.9961506178    1.7217359195    2.7601753069
C       -4.7500853089   -0.5027056508    2.2505015989
C       -5.2772661913    2.0542217997    3.2139084035
C       -6.0301121024   -0.1642025669    2.7075640974
C       -3.6928792103    0.4336197520    2.2785337927
C       -6.3060762713    1.1132683498    3.1958316001
C       -2.3293197772    0.1864521292    1.8271843570
C       -0.2975238406   -1.0806369068    1.0395920749
C       -1.6857161834   -0.9904576275    1.5528313242
C        1.4136242500    2.0354501480    0.5651787267
N       -2.7204044721   -3.3251762438    2.0102061832
N        0.5684305128   -0.1497929367    0.6924464170
O        0.2520336262    1.2256114413    0.7470275719
Cl      -7.9050725802    1.5279490791    3.7619999898
H       -3.2268160398    2.4849485456    2.7944504712
H       -4.6440548319   -1.5015433171    1.8547570656
H       -5.4786291138    3.0523357392    3.5851877562
H       -6.8237639556   -0.9017855304    2.6762845485
H       -1.7504789343    1.0933484414    1.7792779209
H        0.0892596427   -2.0874532018    0.9246232016
H        1.1607193446    3.0866404311    0.7295382873
H        1.7966594785    1.9175521258   -0.4528943594
H        2.1943826388    1.7459960451    1.2757312014
24   

C       -2.3531074059   -2.2647336172    1.4858524727
C       -4.0373094406    1.7617564616    2.5824471689
C       -4.7032566264   -0.5445049875    2.4588031237
C       -5.3148299957    2.1102322728    3.0331908891
C       -5.9805343048   -0.1874772154    2.9107331972
C       -3.6934809692    0.4284330712    2.2824798444
C       -6.2995221739    1.1386859618    3.2019287990
C       -2.3348400776    0.1771583629    1.8211768063
C       -0.3013077901   -1.0635512209    1.0022402275
C       -1.7116454066   -0.9874404719    1.4588991893
C        1.5224255723    2.0303931253    0.8201356985
N       -2.8188351827   -3.3327163253    1.4860270894
N        0.6189147583   -0.1357264015    0.8273653149
O        0.3667869145    1.2318325286    1.0732168583
Cl      -7.8947674347    1.5722318918    3.7645487045
H       -3.3050315927    2.5529699202    2.4669006783
H       -4.5754186219   -1.5965051037    2.2663380487
H       -5.5477909149    3.1451325275    3.2553623039
H       -6.7376020063   -0.9528107420    3.0376425709
H       -1.7596484419    1.0851744981    1.7755305712
H        0.0535904351   -2.0602180695    0.7627193761
H        1.2987465799    3.0801714363    1.0297284776
H        1.8242083263    1.9352486754   -0.2274415256
H        2.3499502790    1.7104340400    1.4608106356
24   

C       -2.4824319865   -2.1770119256    1.1737166445
C       -4.1145120573    1.7727754884    2.3875964881
C       -4.6148144859   -0.5605952122    2.6728124839
C       -5.3951955700    2.1051081937    2.8426732554
C       -5.8960279897   -0.2215621802    3.1261274970
C       -3.6926259620    0.4337010917    2.2776639051
C       -6.3001582032    1.1109807634    3.2127171875
C       -2.3392001839    0.1908555698    1.7946307267
C       -0.3269546978   -1.0677019255    0.9458637335
C       -1.7482016734   -0.9634153387    1.3553504108
C        1.5909216761    1.9578490305    1.1246267295
N       -3.0384645165   -3.1878686285    1.0122421159
N        0.6528324654   -0.1863937274    0.9572320469
O        0.4713234735    1.1292440957    1.4378720227
Cl      -7.8985452898    1.5254539595    3.7807555022
H       -3.4449637097    2.5788366081    2.1091850658
H       -4.3805183042   -1.6144634708    2.6784927197
H       -5.6934777375    3.1448635696    2.9102215183
H       -6.5851750515   -1.0040213502    3.4223097832
H       -1.7675645664    1.1008327530    1.7234545030
H       -0.0243048880   -2.0375575549    0.5660211747
H        1.3724279115    2.9936407976    1.3991620020
H        1.8072127540    1.9160562636    0.0523703552
H        2.4721231128    1.6219581559    1.6793723835
24   

C       -2.5851634436   -2.0890481962    1.0446084936
C       -4.2092356479    1.7544029549    2.2265757264
C       -4.5040965444   -0.5452241232    2.8624679702
C       -5.4922902384    2.0505568566    2.7008473566
C       -5.7877707154   -0.2447408493    3.3343403197
C       -3.6928330396    0.4471586397    2.2741271506
C       -6.2962755496    1.0529109768    3.2539983991
C       -2.3362554356    0.2226941760    1.7834328810
C       -0.3847232751   -1.0485567484    0.8207130772
C       -1.7901876614   -0.9211735942    1.2695007613
C        1.6517195590    1.8665403336    1.2812218926
N       -3.2022746058   -3.0590745629    0.8578682089
N        0.6266521509   -0.2076489943    0.8931203438
O        0.4974075058    1.0575491922    1.5080633595
Cl      -7.8975732746    1.4229350451    3.8441127813
H       -3.6148197391    2.5570984493    1.8048430311
H       -4.1562845092   -1.5617429075    2.9930657537
H       -5.8716256351    3.0640043641    2.6407223746
H       -6.3952589848   -1.0264625545    3.7755074356
H       -1.7675643775    1.1348667500    1.6972051572
H       -0.1291677711   -1.9936908025    0.3540927455
H        1.4715120031    2.8798859124    1.6507977577
H        1.8770954362    1.9170469733    0.2111785859
H        2.5134733223    1.4448302234    1.8071757398
24   

C       -2.6698377201   -1.9958174415    0.9641821940
C       -4.2958691333    1.7215017367    2.0808158548
C       -4.3911863389   -0.4900534415    3.0226822231
C       -5.5808269532    1.9845233158    2.5701824448
C       -5.6765064074   -0.2242305163    3.5098467530
C       -3.6882884040    0.4696779680    2.2700833705
C       -6.2858997940    1.0123742306    3.2836432088
C       -2.3200100562    0.2621683884    1.7899872250
C       -0.4412417466   -1.0100361106    0.6954835084
C       -1.8252607721   -0.8645447917    1.1978699391
C        1.7263648865    1.7660705081    1.3752803712
N       -3.3322251182   -2.9347068431    0.7742121589
N        0.5987062850   -0.2085603335    0.7974833040
O        0.5243354535    1.0080215532    1.5120162682
Cl      -7.8896802747    1.3411419256    3.8911875186
H       -3.7727181446    2.4994549525    1.5362171639
H       -3.9453209429   -1.4520754156    3.2474210484
H       -6.0387793753    2.9515313216    2.3977867806
H       -6.2063248833   -0.9827812048    4.0742403409
H       -1.7477575897    1.1739634185    1.7124397537
H       -0.2332493781   -1.9300183869    0.1601675175
H        1.5916771442    2.7560915486    1.8198401284
H        1.9821552306    1.8867322813    0.3177847626
H        2.5498684734    1.2570889220    1.8851005039
24   

C       -2.7297969860   -1.8867779734    0.8732228088
C       -4.3885229429    1.6604318126    1.9415800177
C       -4.2807531528   -0.4013307579    3.1789364435
C       -5.6734158665    1.8945700136    2.4461059669
C       -5.5657330907   -0.1653197045    3.6818459328
C       -3.6862883266    0.4921697844    2.2723346694
C       -6.2764939500    0.9813829154    3.3158166033
C       -2.3051512318    0.3077274377    1.7967008725
C       -0.4901255085   -0.9235333042    0.5594635731
C       -1.8518796346   -0.7833601709    1.1180459170
C        1.7860826463    1.6999693858    1.4585536564
N       -3.4216444763   -2.8015736635    0.6715630509
N        0.5703900404   -0.1542368594    0.6901629864
O        0.5421650953    1.0009157652    1.5035059589
Cl      -7.8801824578    1.2738431798    3.9418913012
H       -3.9396298568    2.3897992340    1.2767555984
H       -3.7454533095   -1.2906336049    3.4930597260
H       -6.2106502182    2.7926710233    2.1644953629
H       -6.0168818336   -0.8756369432    4.3648275023
H       -1.7306391827    1.2207948833    1.7483279786
H       -0.3215834674   -1.8069768947   -0.0465108489
H        1.6935879694    2.6532308477    1.9864276434
H        2.0738310959    1.8980108942    0.4211713408
H        2.5683816412    1.1035657604    1.9376446620
24   

C       -2.8007517390   -1.7605429195    0.7368116350
C       -4.4771099611    1.5474800591    1.8092111960
C       -4.1805235947   -0.2847690089    3.3438705214
C       -5.7661819032    1.7590952691    2.3131940925
C       -5.4695554910   -0.0712257144    3.8466365569
C       -3.6799458227    0.5031366708    2.2969097657
C       -6.2762092340    0.9490815250    3.3327774062
C       -2.2906528192    0.3347038069    1.8132430725
C       -0.5331914766   -0.8457503366    0.4519002014
C       -1.8815513458   -0.7065345451    1.0410199660
C        1.8450862873    1.6040863122    1.5528932719
N       -3.5273043757   -2.6331740167    0.4784777524
N        0.5530373658   -0.1231379029    0.6285457815
O        0.5696562181    0.9631369878    1.5321123135
Cl      -7.8850430897    1.2130123041    3.9583629031
H       -4.0986151350    2.1929955290    1.0246612389
H       -3.5673505302   -1.0755297799    3.7618144901
H       -6.3795920978    2.5581627951    1.9135674674
H       -5.8502377006   -0.7002747780    4.6427883135
H       -1.6935341617    1.2340955702    1.8462957481
H       -0.4017080578   -1.6836203077   -0.2239086437
H        1.7920101619    2.5130758179    2.1585656661
H        2.1512724606    1.8744245280    0.5373708657
H        2.5944109932    0.9335930345    1.9844245646
24   

C       -2.8983911104   -1.5265932229    0.4991226257
C       -4.5765784422    1.3523062769    1.6566587334
C       -4.0787118184   -0.1187921083    3.5019260073
C       -5.8830009793    1.5075974419    2.1355823367
C       -5.3860503361    0.0386793019    3.9777312186
C       -3.6613991638    0.5378197939    2.3353332071
C       -6.2994047104    0.8536989845    3.3002347395
C       -2.2727705683    0.3747913830    1.8349642537
C       -0.5455175833   -0.8084477611    0.4324797497
C       -1.9098598969   -0.6016636496    0.9640328724
C        1.9172203482    1.5270361644    1.5970660816
N       -3.6811728268   -2.2930060515    0.1041832309
N        0.5710460005   -0.1460656337    0.6519708111
O        0.6060066492    0.9684492275    1.5184881780
Cl      -7.9290790553    1.0498666653    3.8961269660
H       -4.2729829531    1.8633037947    0.7498517887
H       -3.3858110506   -0.7580646374    4.0374661166
H       -6.5840338444    2.1375934025    1.6006915272
H       -5.6999603453   -0.4761514400    4.8781975574
H       -1.5686880553    1.0980588614    2.2169089672
H       -0.4341521761   -1.6410669052   -0.2533972307
H        1.9124637964    2.3869561519    2.2726893331
H        2.2466321089    1.8568489171    0.6069359786
H        2.6223972914    0.7817974031    1.9778267088
24   

C       -2.9617242765   -1.2820613566    0.2518507752
C       -4.6671476124    1.1338431529    1.5434662927
C       -3.9880707729    0.0947509093    3.6117530476
C       -5.9770466242    1.2348948280    2.0267909389
C       -5.2996702293    0.1975080661    4.0909938613
C       -3.6519687322    0.5852748686    2.3401144060
C       -6.3043061841    0.7732348312    3.3060178283
C       -2.2745298067    0.4163310155    1.8226651801
C       -0.5624650527   -0.7619181451    0.4047591446
C       -1.9398718424   -0.4912049836    0.8676235329
C        1.9235933434    1.4811342205    1.6919003950
N       -3.7735513907   -1.9347668671   -0.2687788573
N        0.5676235673   -0.1470450929    0.6840982332
O        0.5932265113    0.9934854434    1.5177941653
Cl      -7.9385630618    0.9027636241    3.9075463928
H       -4.4371114615    1.4832564238    0.5430079179
H       -3.2279774945   -0.3690930135    4.2302271810
H       -6.7505354310    1.6688952513    1.4040296335
H       -5.5467607716   -0.1765788678    5.0776222960
H       -1.5030887672    0.8321822952    2.4539464663
H       -0.4555657030   -1.5887551300   -0.2887695772
H        1.9295528102    2.2803148957    2.4383401982
H        2.3044794777    1.8768119174    0.7455174543
H        2.5821470943    0.6757928901    2.0322972080
24   

C       -2.9913810916   -1.1586975847    0.0725231432
C       -4.7464150166    0.9702644951    1.4980093338
C       -3.9207629511    0.2964010866    3.6637401211
C       -6.0380593514    1.0758148702    2.0270539214
C       -5.2149282621    0.4044715389    4.1870412575
C       -3.6664225934    0.5959790239    2.3136018339
C       -6.2838754313    0.7979065639    3.3754529648
C       -2.3050202075    0.4131539902    1.7825601359
C       -0.5940808696   -0.6712497500    0.2888027621
C       -1.9741429113   -0.4198921491    0.7565050256
C        1.9152447239    1.3973885540    1.8036991017
N       -3.8007018594   -1.7625869986   -0.5076162709
N        0.5415173778   -0.0973991272    0.6275235553
O        0.5760618202    0.9736804029    1.5484863866
Cl      -7.8967571273    0.9304713865    4.0315198887
H       -4.5853397904    1.1829686527    0.4468708227
H       -3.1115264720   -0.0254911021    4.3094629754
H       -6.8607834838    1.3703164818    1.3859912672
H       -5.3981582484    0.1760279160    5.2304491331
H       -1.5242477303    0.7475874054    2.4493855243
H       -0.4890828407   -1.4429018537   -0.4659510558
H        1.9222972978    2.1334232444    2.6124658890
H        2.3414199318    1.8535331509    0.9050733957
H        2.5345255234    0.5441841927    2.0982080992
24   

C       -2.9770078500   -1.1003990639   -0.0854590406
C       -4.8122864940    0.7848961427    1.4792181540
C       -3.8572551228    0.4598170298    3.6730562081
C       -6.0806843480    0.9158691014    2.0567957851
C       -5.1291051283    0.5930525374    4.2427307475
C       -3.6781661000    0.5576892843    2.2793291669
C       -6.2513770562    0.8217265170    3.4411490868
C       -2.3295670035    0.3707284678    1.7380345428
C       -0.5976772389   -0.5712986121    0.1708035322
C       -1.9841849656   -0.3786066222    0.6501094653
C        1.8973577484    1.3232078794    1.9184095516
N       -3.7658207561   -1.6876150816   -0.7094411928
N        0.5316992143   -0.0182467993    0.5619053905
O        0.5583880507    0.9665900099    1.5746025572
Cl      -7.8364481282    0.9845984304    4.1555730073
H       -4.7214399848    0.8750067525    0.4027973727
H       -3.0072028933    0.2716762911    4.3191925590
H       -6.9439762312    1.0911414240    1.4253878386
H       -5.2526365455    0.5142258500    5.3165215208
H       -1.5479825586    0.6771307335    2.4163649644
H       -0.4794238133   -1.2764655773   -0.6446467487
H        1.8920647845    1.9806662119    2.7922735435
H        2.3714352260    1.8470600159    1.0829634992
H        2.4810257641    0.4278309819    2.1548715625
24   

C       -2.9449408325   -1.0331591638   -0.2517148794
C       -4.8735733274    0.5957933240    1.4801077174
C       -3.7998424452    0.6202071600    3.6427355037
C       -6.1162137851    0.7589150935    2.1041530086
C       -5.0468107531    0.7847393291    4.2568402635
C       -3.6901476515    0.5129796329    2.2400943754
C       -6.2157132265    0.8519731468    3.4947681113
C       -2.3529707718    0.3251781605    1.6844087405
C       -0.5895822009   -0.4549113610    0.0608402929
C       -1.9843552283   -0.3311422658    0.5425998709
C        1.8802076024    1.2422476084    2.0311867872
N       -3.7035760813   -1.6059816919   -0.9247559340
N        0.5306881644    0.0743595655    0.5082024090
O        0.5458476220    0.9566402178    1.6113761970
Cl      -7.7698860798    1.0537785333    4.2649677754
H       -4.8581505958    0.5605605741    0.3981763311
H       -2.9147757351    0.5652113596    4.2665488082
H       -7.0158800741    0.8176484842    1.5025464554
H       -5.1136485172    0.8583209948    5.3360365828
H       -1.5724625463    0.6215939440    2.3669351652
H       -0.4532318503   -1.0826770958   -0.8130140563
H        1.8602116351    1.8130699402    2.9637648533
H        2.3954351955    1.8304438060    1.2659103678
H        2.4338164270    0.3129310705    2.1991581433
24   

C       -2.9245092911   -0.9226942922   -0.4107193009
C       -4.9311167816    0.3851082046    1.5176710398
C       -3.7690450264    0.7738806212    3.5951830499
C       -6.1519237906    0.5749416500    2.1768504436
C       -4.9945814557    0.9637750672    4.2435002213
C       -3.7078099340    0.4632814722    2.2183410361
C       -6.1969250789    0.8611097833    3.5425144095
C       -2.3785682327    0.2853814995    1.6476461740
C       -0.5906081306   -0.3393179432   -0.0166858261
C       -1.9932225468   -0.2726569041    0.4582696633
C        1.8705492057    1.1283966390    2.1417815878
N       -3.6482213612   -1.4592619015   -1.1491889008
N        0.5255945310    0.1450509164    0.4893668222
O        0.5383799002    0.9072052769    1.6785413247
Cl      -7.7249406748    1.0949616808    4.3548302533
H       -4.9871866076    0.2043995711    0.4541069668
H       -2.8598849656    0.8604861371    4.1795256514
H       -7.0789630571    0.5049967347    1.6195268868
H       -5.0175194703    1.1920369672    5.3027217224
H       -1.5997072995    0.5790213421    2.3313461760
H       -0.4410412827   -0.8782092393   -0.9460210959
H        1.8453651755    1.6131682412    3.1217498522
H        2.4085627351    1.7732976839    1.4405435003
H        2.4045636590    0.1772265150    2.2331877245
24   

C       -2.9225420899   -0.6403595808   -0.5814976634
C       -4.9507884646    0.1259395419    1.6127475227
C       -3.7594659596    0.9528811709    3.5348599623
C       -6.1598532631    0.3241801413    2.2912327150
C       -4.9729374536    1.1472143415    4.2037543216
C       -3.7113908060    0.4357510970    2.2202635520
C       -6.1845005482    0.8346829949    3.5889719042
C       -2.3866524486    0.2816717306    1.6344289465
C       -0.5832636789   -0.2680832582   -0.0392201353
C       -1.9963171791   -0.1813317332    0.4059734288
C        1.9221690824    0.8717551892    2.2748413403
N       -3.6274672254   -1.0267299341   -1.4248254154
N        0.5473853954    0.0612097572    0.5535438595
O        0.5830992376    0.6177313555    1.8510134312
Cl      -7.6984785951    1.0773797581    4.4246157999
H       -5.0484381509   -0.2715582223    0.6155930836
H       -2.8449212874    1.2118558061    4.0565143818
H       -7.0952969159    0.0778152752    1.8020874949
H       -4.9784040848    1.5451013440    5.2118465994
H       -1.6128979458    0.5903868494    2.3151609439
H       -0.4367193997   -0.6737073928   -1.0345013314
H        1.9165988941    1.2860421167    3.2869431089
H        2.4007728163    1.5893432089    1.6014029601
H        2.5003803604   -0.0573930508    2.2763653438
