28   

C       -0.9864291807    0.3276395536    0.5217264569
C       -2.0409320810   -0.5895533777    0.6208322415
C       -1.7878432185    1.4789602640    2.5031846620
C       -3.9210815156    0.3917739006    3.5397769427
C       -2.8339439669    0.5554031558    2.5899836257
C       -0.8416019802    1.3739983467    1.4579447710
C       -2.9511013658   -0.4560460786    1.6616717228
C       -4.6570454247   -0.7109892841    3.1426344409
C       -5.7902527125   -1.3931287484    3.7610273493
C        1.2176046144    2.2844759529    2.5629086510
C       -0.2032472056    3.7696737037    1.0968232861
C        0.3123455730    2.3470648599    1.3292564910
N       -4.0551442847   -1.2375646087    1.9771131539
O       -6.1773432009   -2.5078616311    3.4361591648
O       -6.3724301798   -0.7090125437    4.7738589457
H       -0.2745515019    0.2218137487   -0.2887724005
H       -2.1447425886   -1.3924858716   -0.0980138902
H       -1.7103711141    2.2651783501    3.2438485942
H       -4.1130634147    0.9999329276    4.4155259544
H        0.6734033489    2.5783885825    3.4654247275
H        2.0726789906    2.9562437939    2.4385678104
H        1.5962979190    1.2663585545    2.6984298776
H       -0.8001172020    4.1145142857    1.9465121459
H       -0.8254264276    3.7997447514    0.1966668269
H        0.6363181717    4.4580734601    0.9587479477
H        0.9162816168    2.0657635884    0.4599788850
H       -4.3670037236   -2.0780281565    1.4945223922
H       -7.0858072830   -1.2860265268    5.0903305624
28   

C       -0.7191869528    0.1396841609    0.7973123277
C       -1.7288323110   -0.8220893491    0.9347602344
C       -1.8743693635    1.5911755057    2.3631898712
C       -4.0728014776    0.5522982142    3.3072384975
C       -2.8724260105    0.6206336784    2.4923678577
C       -0.7737930634    1.3587288205    1.5067750924
C       -2.7943222608   -0.5599115888    1.7866882849
C       -4.6811426212   -0.6639054536    3.0512502774
C       -5.8041141019   -1.3321243718    3.7081728754
C        1.0248091715    2.6519748503    2.6881138879
C       -0.1997043469    3.6673084679    0.7277083555
C        0.3382450135    2.3751303299    1.3471048750
N       -3.8866223477   -1.3556482528    2.1081920741
O       -5.9340257219   -2.5466154377    3.7764410529
O       -6.6703794565   -0.4929077893    4.3225523487
H        0.1148344241   -0.0670295922    0.1365878839
H       -1.6780503716   -1.7580899741    0.3929837043
H       -1.9509690025    2.5107385083    2.9299746305
H       -4.4115954301    1.2917209180    4.0227854255
H        0.3239159346    3.0859016688    3.4074567567
H        1.8561628310    3.3502653109    2.5496918233
H        1.4227512143    1.7211818349    3.1047638450
H       -0.9495219631    4.1301466752    1.3763745419
H       -0.6598160854    3.4537175897   -0.2423244226
H        0.6158687690    4.3805500859    0.5729955251
H        1.0935898279    1.9681347512    0.6664274340
H       -4.0548692672   -2.3101687708    1.7973834900
H       -7.3325008319   -1.0709993974    4.7340813741
28   

C       -0.7446446415    0.1688245537    0.7513423976
C       -1.7605316391   -0.7880627944    0.8772813285
C       -1.8844596607    1.6035331523    2.3435008935
C       -4.0776410552    0.5582784488    3.2905572827
C       -2.8882224081    0.6374897218    2.4614880326
C       -0.7881756634    1.3768527885    1.4801673811
C       -2.8211266686   -0.5322226666    1.7373464486
C       -4.6936213610   -0.6508097569    3.0216005853
C       -5.7700641126   -1.3410629969    3.7408592179
C        1.0184161301    2.6416302261    2.6820892355
C       -0.1936586416    3.6894128713    0.7311629184
C        0.3327199593    2.3859259259    1.3362178270
N       -3.9123125046   -1.3301816143    2.0580634138
O       -5.7641513957   -2.5341678982    4.0049147043
O       -6.7434676543   -0.5210677755    4.2005171121
H        0.0865251256   -0.0338995429    0.0858040637
H       -1.7165991038   -1.7167846911    0.3225617278
H       -1.9516066582    2.5134677919    2.9267740447
H       -4.3950400241    1.2790298799    4.0342870851
H        0.3197542137    3.0733816018    3.4048880384
H        1.8559377212    3.3344468611    2.5536123675
H        1.4076458589    1.7029066840    3.0890794167
H       -0.9420685720    4.1495726532    1.3833673147
H       -0.6524063117    3.4909854077   -0.2427165491
H        0.6276361013    4.3984024914    0.5876072074
H        1.0867085928    1.9810407623    0.6527845280
H       -4.0698381586   -2.2867591614    1.7493099604
H       -7.3531870094   -1.1000008200    4.6852152397
28   

C       -0.7784951257    0.1823185109    0.7134538181
C       -1.8011959480   -0.7682078022    0.8332124027
C       -1.8947878322    1.6027744501    2.3345655032
C       -4.0827710294    0.5567259811    3.2907124850
C       -2.9049547775    0.6427391706    2.4465611672
C       -0.8067707819    1.3799732903    1.4599474553
C       -2.8531912861   -0.5166591914    1.7051736880
C       -4.7088442116   -0.6439031980    3.0121550669
C       -5.7521873969   -1.3441299480    3.7827636174
C        1.0149042037    2.6165052944    2.6703089273
C       -0.1953975709    3.6952331565    0.7353319726
C        0.3223821532    2.3810087436    1.3240838149
N       -3.9450172065   -1.3135272888    2.0273462690
O       -5.6274556102   -2.4655034200    4.2472446862
O       -6.8406091974   -0.5867172288    4.0502757040
H        0.0466372449   -0.0177778295    0.0396584304
H       -1.7677692509   -1.6897655020    0.2659874219
H       -1.9495245924    2.5038935878    2.9326221389
H       -4.3785135590    1.2627181100    4.0570333785
H        0.3226875723    3.0466537784    3.4002167936
H        1.8578899035    3.3034893967    2.5462348576
H        1.3975573948    1.6702851553    3.0660220062
H       -0.9382933960    4.1536809333    1.3950185175
H       -0.6585853624    3.5112929256   -0.2392823445
H        0.6310202978    4.3993352725    0.5972549296
H        1.0708490556    1.9774668515    0.6338221846
H       -4.1026135796   -2.2667141761    1.7098915360
H       -7.4119119470   -1.1492018383    4.5970326745
28   

C       -0.7908493529    0.1986795630    0.6994354630
C       -1.8157903138   -0.7490497641    0.8221709848
C       -1.8781950043    1.6038988089    2.3531334760
C       -4.0580945481    0.5560275521    3.3260618367
C       -2.8907018189    0.6466175159    2.4679695730
C       -0.8037313000    1.3874766132    1.4603327690
C       -2.8543656269   -0.5038150825    1.7119152847
C       -4.6915295561   -0.6365995712    3.0422404410
C       -5.7436563493   -1.3296083416    3.8250237614
C        1.0375596171    2.6073552071    2.6586766648
C       -0.1944525139    3.7071932395    0.7494602880
C        0.3269249662    2.3861505400    1.3194889890
N       -3.9462199477   -1.2990305193    2.0382043148
O       -5.5533278557   -2.3220947437    4.5044438432
O       -6.9415031644   -0.7022695604    3.8115699970
H        0.0238000701    0.0035362827    0.0115713475
H       -1.7941906628   -1.6635881991    0.2431697915
H       -1.9209526225    2.4982047260    2.9622773901
H       -4.3407749311    1.2558958555    4.1027137449
H        0.3563115751    3.0331274534    3.4013475834
H        1.8810639835    3.2928194261    2.5297971763
H        1.4222692714    1.6564319537    3.0408790243
H       -0.9276616337    4.1615041596    1.4227141685
H       -0.6704834176    3.5335507863   -0.2208508036
H        0.6321456828    4.4102849763    0.6073737483
H        1.0652151320    1.9867475119    0.6159847957
H       -4.1178093348   -2.2412833301    1.6977964200
H       -7.5114830086   -1.2319594713    4.3913144014
28   

C       -0.7409143994    0.1692348315    0.8096635841
C       -1.7429439780   -0.7940621628    0.9852919865
C       -1.7922543276    1.5820403655    2.4807079246
C       -3.9463953113    0.5322985146    3.5148979507
C       -2.7843274435    0.6106044235    2.6464401371
C       -0.7479931353    1.3700430533    1.5513268487
C       -2.7529419343   -0.5516276800    1.9078601295
C       -4.5678453863   -0.6674623433    3.2654296198
C       -5.7607136132   -1.2733499419    3.9280683613
C        1.1326189506    2.6252953888    2.6392259549
C       -0.2263197877    3.7030391372    0.8045556581
C        0.3512401458    2.3915451475    1.3430216902
N       -3.8345560589   -1.3468131090    2.2642347054
O       -5.7207123935   -2.0011817551    4.8993623941
O       -6.9343356427   -0.9422544794    3.3438261147
H        0.0486765578   -0.0208064843    0.0917933003
H       -1.7300735966   -1.7143336690    0.4151910595
H       -1.8323441980    2.4887945068    3.0713636378
H       -4.2577467017    1.2717182867    4.2423082900
H        0.4853204241    3.0345605647    3.4205893590
H        1.9528344227    3.3285137086    2.4642133459
H        1.5580453007    1.6817040311    2.9955539143
H       -0.9255037476    4.1466020192    1.5197864262
H       -0.7562328683    3.5203440245   -0.1357280834
H        0.5781383908    4.4200107428    0.6131511876
H        1.0545510839    2.0063916338    0.5970051672
H       -4.0457815798   -2.2676700017    1.8904848958
H       -7.6149758866   -1.3888955423    3.8716881487
28   

C       -0.7091489459    0.0989711999    0.9149721433
C       -1.6958835381   -0.8699992571    1.1400846710
C       -1.7279255470    1.5385123996    2.5831307751
C       -3.8724605688    0.5156319156    3.6605215502
C       -2.7064841805    0.5626559840    2.7957465116
C       -0.7081091275    1.3161706646    1.6295442319
C       -2.6829393251   -0.6164518087    2.0843039627
C       -4.4942707223   -0.6959417128    3.4531348401
C       -5.8127149268   -1.1594621454    3.9537379226
C        1.2090982073    2.5936726773    2.6136296398
C       -0.2484029009    3.6544959568    0.8461497584
C        0.3667001826    2.3490503147    1.3590345949
N       -3.7653020872   -1.3995168697    2.4650224402
O       -6.0629183745   -1.5071615922    5.0908484677
O       -6.7349374784   -1.2824860483    2.9707013377
H        0.0591546061   -0.0972721391    0.1759934412
H       -1.6940424882   -1.7993839772    0.5848249553
H       -1.7656599458    2.4611983227    3.1487715580
H       -4.2172285048    1.3032081654    4.3192807088
H        0.5959947949    2.9960769144    3.4256167789
H        2.0114720965    3.3058374602    2.3971886868
H        1.6620950935    1.6552370221    2.9489141797
H       -0.9117671195    4.0976558316    1.5948987690
H       -0.8256538559    3.4644420368   -0.0643420902
H        0.5397140426    4.3762370473    0.6097662147
H        1.0343223092    1.9680956771    0.5788631943
H       -4.0319262368   -2.2903745051    2.0555658815
H       -7.5319509112   -1.6131165545    3.4147392888
28   

C       -0.7026125188    0.1241000670    0.9331243234
C       -1.6959463129   -0.8326624228    1.1813515799
C       -1.6877718751    1.5932656261    2.5953810724
C       -3.8328451403    0.6090382497    3.7041335985
C       -2.6733357875    0.6298790824    2.8303052070
C       -0.6811936022    1.3495814051    1.6332207653
C       -2.6694513827   -0.5585546581    2.1339310737
C       -4.4701540256   -0.6024412540    3.5213735214
C       -5.7970469325   -1.0163893167    4.0153400257
C        1.2703357560    2.6043370959    2.5743323155
C       -0.2087934807    3.6824388558    0.8357601124
C        0.3995749398    2.3693151180    1.3375243690
N       -3.7574206613   -1.3242918417    2.5344234728
O       -6.1430820753   -1.0740225870    5.1799780831
O       -6.6002765462   -1.4865261356    3.0304715102
H        0.0548158552   -0.0881331282    0.1873780759
H       -1.7100353942   -1.7683061901    0.6368793684
H       -1.7105672803    2.5230718353    3.1500840210
H       -4.1683914519    1.4122799813    4.3488622916
H        0.6783456614    3.0136862609    3.3984690606
H        2.0763457728    3.3071033345    2.3413367058
H        1.7190828904    1.6607111276    2.9006478544
H       -0.8491786524    4.1364116194    1.5978922663
H       -0.8084069814    3.4990834744   -0.0615404437
H        0.5838622223    4.3928446297    0.5809029852
H        1.0457767856    1.9791270021    0.5440057745
H       -4.0564522456   -2.2052859419    2.1250249567
H       -7.4164825961   -1.7542019831    3.4825310819
28   

C       -0.7185429213    0.1453911717    0.9037209914
C       -1.7220286059   -0.8037942639    1.1402990397
C       -1.6883407505    1.6049379840    2.5833886829
C       -3.8410039543    0.6292100642    3.6840221314
C       -2.6838814748    0.6492309288    2.8068720894
C       -0.6843143441    1.3621717228    1.6184146058
C       -2.6927709041   -0.5310173408    2.0960580647
C       -4.4920259588   -0.5742330348    3.4858596909
C       -5.8049862226   -0.9857437453    3.9977311689
C        1.2761923281    2.5902930936    2.5775799245
C       -0.1866723071    3.6965208598    0.8430123420
C        0.4076506009    2.3736499532    1.3357572032
N       -3.7876612628   -1.2907513093    2.4894506489
O       -6.2134288495   -0.8290928908    5.1335999578
O       -6.5195875137   -1.7063939725    3.0979978714
H        0.0369940433   -0.0660197172    0.1558330195
H       -1.7456098655   -1.7329466634    0.5851368737
H       -1.7011327434    2.5279568066    3.1496619190
H       -4.1645063068    1.4240957359    4.3453094637
H        0.6854242618    2.9990388805    3.4028871035
H        2.0898712801    3.2869515512    2.3530273465
H        1.7145363145    1.6397935910    2.8980186957
H       -0.8260061779    4.1495620641    1.6066012985
H       -0.7843842681    3.5263570634   -0.0581452837
H        0.6133934716    4.4018579554    0.5974155252
H        1.0531131080    1.9839593564    0.5414002987
H       -4.0987272951   -2.1664697883    2.0766492226
H       -7.3379560183   -1.9412183652    3.5645953782
28   

C       -0.7403454313    0.1702179667    0.8629787653
C       -1.7560284168   -0.7710024836    1.0783420949
C       -1.7069703058    1.6167237971    2.5558130781
C       -3.8732862278    0.6455670734    3.6338154792
C       -2.7145170218    0.6690210361    2.7584776559
C       -0.6981536347    1.3762707902    1.5952437503
C       -2.7310566971   -0.5010309836    2.0304751253
C       -4.5359977470   -0.5478606947    3.4122954464
C       -5.8264074028   -0.9786581975    3.9521444807
C        1.2661740725    2.5700636669    2.5905803561
C       -0.1656485735    3.7135193373    0.8542512713
C        0.4085123723    2.3782535209    1.3370396549
N       -3.8337517999   -1.2567733648    2.4094762246
O       -6.2991767223   -0.6495571103    5.0249264598
O       -6.4499812986   -1.8964114248    3.1706983669
H        0.0191172175   -0.0394089003    0.1185762386
H       -1.7847914326   -1.6925685692    0.5109098255
H       -1.7130855488    2.5310413332    3.1361602232
H       -4.1854092473    1.4266871169    4.3168191919
H        0.6715112301    2.9760150861    3.4144629755
H        2.0902136728    3.2597715365    2.3829663112
H        1.6901127442    1.6108395199    2.9043428312
H       -0.8083554796    4.1641381285    1.6164520572
H       -0.7552781276    3.5609680699   -0.0553403823
H        0.6448023994    4.4128140002    0.6260714653
H        1.0581482959    1.9907774337    0.5450074722
H       -4.1430914153   -2.1354227894    2.0008003830
H       -7.2667899437   -2.1120034745    3.6494211025
28   

C       -0.7424722453    0.2164519277    0.8118364527
C       -1.7697019524   -0.7160272054    1.0097447119
C       -1.6911119451    1.6429873916    2.5316586752
C       -3.8616785239    0.6727133667    3.6019861071
C       -2.7097391711    0.7037899485    2.7175970345
C       -0.6855636131    1.4081561764    1.5662878932
C       -2.7413323191   -0.4518959728    1.9669421851
C       -4.5400916984   -0.5068694271    3.3555514157
C       -5.7976079818   -0.9650496595    3.9413779777
C        1.2833788520    2.5726326731    2.5907564032
C       -0.1223272151    3.7447710072    0.8522115652
C        0.4346224856    2.4000103891    1.3281673528
N       -3.8492580681   -1.2042859078    2.3372970239
O       -6.3343521811   -0.5044209199    4.9328328499
O       -6.3297470530   -2.0337491733    3.2951017952
H        0.0149202796    0.0109393208    0.0641878639
H       -1.8089707397   -1.6271682513    0.4263282438
H       -1.6851010568    2.5456399472    3.1300026904
H       -4.1531782772    1.4343714603    4.3155373490
H        0.6865202115    2.9792773954    3.4126787580
H        2.1168218241    3.2546292501    2.3955364740
H        1.6939349208    1.6064318419    2.9008723112
H       -0.7685493466    4.1938255956    1.6123991167
H       -0.7044421775    3.6058822999   -0.0643866200
H        0.6966404561    4.4386375530    0.6383695878
H        1.0875567484    2.0126969166    0.5387751576
H       -4.1548103571   -2.0879511895    1.9361800578
H       -7.1404118286   -2.2396227344    3.7884565640
28   

C       -0.7819190418    0.2344675915    0.7772704163
C       -1.8239801608   -0.6845614286    0.9601147091
C       -1.7179913028    1.6568754811    2.5073607914
C       -3.9008748495    0.7017331899    3.5659915564
C       -2.7512417352    0.7309735664    2.6785079858
C       -0.7109336466    1.4170243045    1.5448250032
C       -2.7965062292   -0.4160178482    1.9151795799
C       -4.5963085683   -0.4641253137    3.3025064698
C       -5.8215452716   -0.9477713425    3.9326791651
C        1.2683499927    2.5402066466    2.5962839186
C       -0.1047018784    3.7504415555    0.8577558633
C        0.4270732383    2.3927633609    1.3253659656
N       -3.9126726777   -1.1597563449    2.2783025412
O       -6.4421167964   -0.3834280649    4.8158495214
O       -6.2440795537   -2.1388345879    3.4365057686
H       -0.0231856294    0.0249660164    0.0320935779
H       -1.8728186951   -1.5897166896    0.3681662221
H       -1.7004002065    2.5519054300    3.1168279816
H       -4.1728552824    1.4494343906    4.3017116836
H        0.6716409655    2.9489504038    3.4172684695
H        2.1141393854    3.2104905009    2.4139889164
H        1.6609888875    1.5648013318    2.9007554100
H       -0.7502608616    4.2022145525    1.6169037874
H       -0.6811957569    3.6292563335   -0.0648791843
H        0.7267775212    4.4333425262    0.6573573423
H        1.0802635231    2.0023523069    0.5377149139
H       -4.2107456767   -2.0525584925    1.8918954355
H       -7.0526759922   -2.3389843823    3.9356192898
28   

C       -0.7994848923    0.2664472260    0.7399883973
C       -1.8510707535   -0.6446473024    0.9072010625
C       -1.7286482677    1.6759067365    2.4843471236
C       -3.9174267811    0.7216335631    3.5317246204
C       -2.7712550269    0.7577624039    2.6400644359
C       -0.7199108456    1.4382645756    1.5229998070
C       -2.8246549731   -0.3787886130    1.8619318329
C       -4.6235517380   -0.4336223820    3.2503700097
C       -5.8116275527   -0.9527619262    3.9237487212
C        1.2641650511    2.5281352655    2.6014426074
C       -0.0832861995    3.7718174482    0.8664828566
C        0.4304723170    2.4036073600    1.3229367832
N       -3.9442375164   -1.1209390689    2.2176011563
O       -6.5321557814   -0.3307616817    4.6834922571
O       -6.1005637721   -2.2349949657    3.5841045039
H       -0.0392447892    0.0584254203   -0.0040675017
H       -1.9052759938   -1.5426829030    0.3049646741
H       -1.7035774798    2.5618342824    3.1067111822
H       -4.1728506315    1.4516285170    4.2907480465
H        0.6663113994    2.9349631117    3.4225373478
H        2.1187046444    3.1907438672    2.4323286675
H        1.6437590513    1.5452640589    2.8983787332
H       -0.7297901849    4.2218835546    1.6258465822
H       -0.6540741840    3.6668005092   -0.0616585102
H        0.7568705756    4.4479476751    0.6798243061
H        1.0852758646    2.0146175221    0.5359207915
H       -4.2287011126   -2.0231253911    1.8430858124
H       -6.9065131095   -2.4450013801    4.0834072458
28   

C       -0.8611238850    0.2760539871    0.7108667321
C       -1.9256344455   -0.6223077713    0.8646594049
C       -1.7672083134    1.6694182678    2.4800410809
C       -3.9605413343    0.7219725115    3.5239744369
C       -2.8222693540    0.7634204229    2.6227909521
C       -0.7635471232    1.4334927344    1.5129702307
C       -2.8938747688   -0.3582953577    1.8253516724
C       -4.6860709524   -0.4163111872    3.2232415021
C       -5.8386814728   -0.9680592267    3.9368512601
C        1.2287629831    2.4897066689    2.6133019089
C       -0.0916872181    3.7614804257    0.8779495126
C        0.4016753330    2.3840783900    1.3286001696
N       -4.0195365758   -1.0938776554    2.1753921509
O       -6.6632245739   -0.3301812168    4.5660720401
O       -5.9841488623   -2.3054898714    3.7582672845
H       -0.1045258673    0.0689427454   -0.0371482577
H       -1.9928737938   -1.5101000478    0.2487093376
H       -1.7275868190    2.5435881298    3.1180643018
H       -4.1913963402    1.4317554486    4.3094536365
H        0.6317481079    2.9003500348    3.4330718920
H        2.0934182978    3.1414085762    2.4534088845
H        1.5929729133    1.5000630379    2.9069814518
H       -0.7389521319    4.2135316414    1.6355131047
H       -0.6563377440    3.6698203881   -0.0553515741
H        0.7579925444    4.4286977690    0.7027157982
H        1.0568989286    1.9916712859    0.5436299248
H       -4.2970995274   -2.0004209795    1.8067869590
H       -6.7867202643   -2.5335796560    4.2549421964
28   

C       -0.8958438762    0.3007615974    0.6803719823
C       -1.9754804943   -0.5815835569    0.8209309781
C       -1.7866144522    1.6909618047    2.4596809005
C       -3.9938153491    0.7631082391    3.4915516086
C       -2.8566064465    0.8006017033    2.5892893802
C       -0.7827534341    1.4483329696    1.4944997235
C       -2.9432811472   -0.3113792777    1.7803965680
C       -4.7373286877   -0.3591525146    3.1767644894
C       -5.8680229722   -0.9306431795    3.9184847065
C        1.2198030490    2.4620431211    2.6171832479
C       -0.0673852506    3.7691343296    0.8830850904
C        0.3998145272    2.3802876126    1.3260806952
N       -4.0786597689   -1.0355717306    2.1227385259
O       -6.8039965676   -0.3109462785    4.3891141453
O       -5.8585744395   -2.2868308370    3.9318134582
H       -0.1391203818    0.0883025571   -0.0660178794
H       -2.0537493214   -1.4627414603    0.1968155661
H       -1.7346281246    2.5571294512    3.1076342029
H       -4.2058430354    1.4601544685    4.2934049292
H        0.6244142392    2.8766216998    3.4361445560
H        2.0964705480    3.1001348833    2.4681310140
H        1.5652295848    1.4641768473    2.9057022472
H       -0.7126230120    4.2256565684    1.6397017840
H       -0.6267192738    3.6941698566   -0.0548926037
H        0.7944432322    4.4235410548    0.7192753274
H        1.0538893849    1.9830022842    0.5426050827
H       -4.3522556803   -1.9441830027    1.7571967067
H       -6.6627464160   -2.5341126529    4.4163151482
28   

C       -0.9225887401    0.3168730905    0.6560088909
C       -2.0107836031   -0.5566373522    0.7845924026
C       -1.8016121625    1.6928545849    2.4521376712
C       -4.0162755048    0.7696781885    3.4731167595
C       -2.8801335444    0.8110482111    2.5698199076
C       -0.7992593297    1.4528981977    1.4846432929
C       -2.9766680534   -0.2892359277    1.7467867648
C       -4.7699200906   -0.3396920674    3.1436219910
C       -5.8940696780   -0.9315941741    3.8932503350
C        1.2088822140    2.4380252943    2.6240796090
C       -0.0601146954    3.7716114615    0.8966667570
C        0.3928474441    2.3749203841    1.3293666121
N       -4.1176818480   -1.0084256242    2.0803689247
O       -6.9383429236   -0.3764327842    4.1773857444
O       -5.7256715258   -2.2544823980    4.1336280500
H       -0.1670984160    0.1063551738   -0.0921854526
H       -2.0965607495   -1.4293523318    0.1496997891
H       -1.7415018240    2.5498864571    3.1114080593
H       -4.2164486535    1.4540905493    4.2885762242
H        0.6146708774    2.8515154124    3.4444258254
H        2.0921286753    3.0689222592    2.4834511707
H        1.5437851232    1.4345421724    2.9054427612
H       -0.7046046816    4.2270060581    1.6546043393
H       -0.6161127456    3.7097410975   -0.0442499964
H        0.8081285837    4.4197678759    0.7421796337
H        1.0462975128    1.9783669406    0.5449918152
H       -4.3916528911   -1.9114058936    1.7025539535
H       -6.5352081169   -2.5280239292    4.5940909651
28   

C       -0.9246679172    0.2880004782    0.6435296352
C       -1.9992249554   -0.6038870447    0.7579293026
C       -1.8371795545    1.6343516007    2.4456399209
C       -4.0482813151    0.6699306682    3.4391282235
C       -2.9026432977    0.7347715665    2.5487012776
C       -0.8247619637    1.4184640621    1.4827313281
C       -2.9750505330   -0.3601559084    1.7163000684
C       -4.7772240244   -0.4476294908    3.0966810807
C       -5.9288305161   -1.0575531594    3.8076997447
C        1.1706264791    2.4090850058    2.6359576568
C       -0.1198621986    3.7598945399    0.9378424901
C        0.3529033120    2.3610660137    1.3418885272
N       -4.1080053351   -1.0988057411    2.0332460357
O       -7.0651516508   -0.6275459136    3.8273465415
O       -5.6286862184   -2.2533782427    4.3661852526
H       -0.1615091835    0.0962418288   -0.1019290992
H       -2.0671983792   -1.4720252469    0.1146654215
H       -1.7950305304    2.4869553920    3.1119828247
H       -4.2708934914    1.3503261449    4.2519078479
H        0.5715623381    2.7958675582    3.4657702559
H        2.0440951664    3.0559096977    2.5071711371
H        1.5209819183    1.4049418132    2.8953453772
H       -0.7673376896    4.1924907141    1.7064674537
H       -0.6782294199    3.7090218878   -0.0023285355
H        0.7394045961    4.4221231932    0.7931256513
H        1.0097700575    1.9895108291    0.5481719323
H       -4.3739715487   -1.9902565420    1.6246534701
H       -6.4573178767   -2.5562458124    4.7703603040
28   

C       -0.8217967275    0.2400549761    0.7080045050
C       -1.8624543279   -0.6893298767    0.8349889567
C       -1.7635746513    1.5568308688    2.5171150000
C       -3.9601724292    0.5444208695    3.4978403269
C       -2.7970239111    0.6217174560    2.6307387774
C       -0.7540433559    1.3752451821    1.5439515208
C       -2.8371045539   -0.4778494889    1.8021162918
C       -4.6512399243   -0.5942563146    3.1606607866
C       -5.9479945077   -1.1089150896    3.6923408626
C        1.2361652794    2.4194872545    2.6491035984
C       -0.1534838889    3.7538737417    1.0173715119
C        0.3808895590    2.3654032146    1.3805935591
N       -3.9578255767   -1.2386886891    2.1092309154
O       -7.0409112536   -0.8423953158    3.2349022983
O       -5.8117750341   -1.9273967595    4.7599943088
H       -0.0626379621    0.0766687432   -0.0482297689
H       -1.9100870309   -1.5565458061    0.1886546801
H       -1.7494538014    2.4160543057    3.1760688708
H       -4.2459138226    1.2614174385    4.2574947788
H        0.6479630209    2.7657302729    3.5042613473
H        2.0800051127    3.1018825064    2.5073007903
H        1.6318843552    1.4244336898    2.8762456627
H       -0.7882442577    4.1521742728    1.8145280160
H       -0.7414923576    3.6996490409    0.0956189619
H        0.6772427523    4.4478584021    0.8555772696
H        1.0243829302    2.0326869900    0.5591640879
H       -4.2438564220   -2.0939239267    1.6412121601
H       -6.7168097579   -2.1770584970    5.0049001519
28   

C       -0.7439252217    0.1572926418    0.7589751489
C       -1.7460389848   -0.8104543910    0.9106077159
C       -1.6912256901    1.4398059251    2.5891282921
C       -3.8513081735    0.3746548659    3.5871694686
C       -2.6873657293    0.4681750625    2.7247152517
C       -0.6992251631    1.2956462618    1.5923549595
C       -2.7061665701   -0.6339588654    1.8992572783
C       -4.5177212593   -0.7890634660    3.2618941724
C       -5.8931500848   -1.1982705473    3.6370293352
C        1.2926296820    2.4020262803    2.6248752152
C       -0.2159164756    3.7073347286    1.0779222914
C        0.3858881769    2.3342698984    1.3939607344
N       -3.8084721802   -1.4199652610    2.2124570239
O       -6.8444208643   -1.1888765178    2.8768579809
O       -6.0403186437   -1.4929491412    4.9485467275
H        0.0001988234    0.0239594501   -0.0178087909
H       -1.7804641889   -1.6758950277    0.2610564280
H       -1.6985573581    2.3030944477    3.2428459878
H       -4.1830509566    1.1176663453    4.3018670953
H        0.7278026191    2.7086572058    3.5104329911
H        2.1011784764    3.1209401742    2.4599423009
H        1.7374169582    1.4202229135    2.8158912267
H       -0.8267152469    4.0713635078    1.9093962907
H       -0.8436982493    3.6449527128    0.1833085374
H        0.5803557671    4.4342331260    0.8894017924
H        1.0041575853    2.0401099985    0.5391354938
H       -4.1146516314   -2.2441483748    1.7024206165
H       -6.9828571971   -1.6956358963    5.0585065156
28   

C       -0.7579458156    0.1641653689    0.7396905878
C       -1.7583611450   -0.8059107580    0.8876122752
C       -1.6846079888    1.4183058311    2.5998617810
C       -3.8344114143    0.3388104427    3.6042226102
C       -2.6790891942    0.4445119949    2.7316981825
C       -0.7040789627    1.2897797193    1.5897023147
C       -2.7072975143   -0.6447505187    1.8895277301
C       -4.5059452877   -0.8219427994    3.2684075845
C       -5.8724523689   -1.2385256555    3.6315096434
C        1.2965755787    2.3858079543    2.6170224659
C       -0.2290759274    3.7081790196    1.1016537671
C        0.3779024624    2.3322033795    1.3942890426
N       -3.8073537302   -1.4343764521    2.2013690375
O       -6.7562650720   -1.4747885331    2.8241463212
O       -6.1182768698   -1.2205505429    4.9616020995
H       -0.0227081843    0.0429169033   -0.0474603889
H       -1.8004737322   -1.6612119856    0.2251800379
H       -1.6849387515    2.2717167233    3.2664750957
H       -4.1605193661    1.0714974839    4.3322057996
H        0.7401530303    2.6806547426    3.5118487960
H        2.1025569096    3.1078359250    2.4531283634
H        1.7444316656    1.4023055443    2.7913724044
H       -0.8324668613    4.0604155194    1.9435599308
H       -0.8653630137    3.6561739164    0.2123961525
H        0.5641613730    4.4388141614    0.9148028074
H        0.9882070210    2.0498677970    0.5298095101
H       -4.1307800435   -2.2420536367    1.6748404300
H       -7.0537217647   -1.4634401465    5.0491603117
28   

C       -0.7797382314    0.1994926080    0.7074119127
C       -1.7853614711   -0.7663933210    0.8463608139
C       -1.6867335306    1.4299939038    2.5930846278
C       -3.8314042601    0.3422325033    3.6013901004
C       -2.6862617182    0.4602424705    2.7164783765
C       -0.7133583153    1.3111158371    1.5747645153
C       -2.7266042541   -0.6152344250    1.8569255822
C       -4.5104849702   -0.8114995654    3.2529426883
C       -5.8466392577   -1.2737979431    3.6447136256
C        1.2973668988    2.3808103110    2.6116570295
C       -0.2233623142    3.7313714280    1.1161790329
C        0.3755529165    2.3482478389    1.3904103348
N       -3.8258821269   -1.4060693973    2.1674934350
O       -6.6656075215   -1.7429806067    2.8685574269
O       -6.1574066723   -1.0353050841    4.9399883326
H       -0.0496298252    0.0854116169   -0.0855627102
H       -1.8363563126   -1.6118475978    0.1719908262
H       -1.6763809664    2.2719572975    3.2740309204
H       -4.1416059357    1.0567195334    4.3541463016
H        0.7452195633    2.6687852025    3.5113451401
H        2.1079430440    3.0991959063    2.4545327454
H        1.7388964268    1.3922629014    2.7731801965
H       -0.8231937956    4.0764331303    1.9635930953
H       -0.8615300264    3.6942874160    0.2275230415
H        0.5740170502    4.4594082045    0.9370360793
H        0.9822695850    2.0725588421    0.5212714651
H       -4.1575893231   -2.2098107447    1.6391432618
H       -7.0704194068   -1.3480480500    5.0422282167
28   

C       -0.8191431863    0.2272820158    0.6715764910
C       -1.8334256522   -0.7304135943    0.8032368813
C       -1.7038809100    1.4415351661    2.5784256491
C       -3.8450890314    0.3524985424    3.5947048168
C       -2.7118440470    0.4796950288    2.6951708535
C       -0.7369685401    1.3263354667    1.5534596756
C       -2.7672369830   -0.5837408575    1.8212109475
C       -4.5345213537   -0.7925578969    3.2365307664
C       -5.8312240936   -1.3082785185    3.6743937770
C        1.2859685571    2.3634039302    2.6014531262
C       -0.2198967112    3.7442842785    1.1185288752
C        0.3639792134    2.3524597499    1.3797402688
N       -3.8663942411   -1.3734393331    2.1341183177
O       -6.5694137211   -1.9889497970    2.9756171731
O       -6.2046976008   -0.9014960887    4.9101962352
H       -0.0935741443    0.1157022675   -0.1259061513
H       -1.8951575554   -1.5677084570    0.1196256997
H       -1.6799572279    2.2729168202    3.2719246203
H       -4.1330550389    1.0473614635    4.3743045527
H        0.7373071717    2.6497576277    3.5037754899
H        2.1048201698    3.0737583364    2.4508282493
H        1.7161420071    1.3684653246    2.7542123711
H       -0.8168990615    4.0870786374    1.9688689870
H       -0.8576475773    3.7224111710    0.2290761619
H        0.5853068072    4.4655156448    0.9470886087
H        0.9680725038    2.0781564262    0.5083379844
H       -4.1998202046   -2.1830219307    1.6150599113
H       -7.0835733620   -1.2893450758    5.0484037278
28   

C       -0.8908746372    0.2300989129    0.6208635362
C       -1.9188712843   -0.7134169761    0.7474837936
C       -1.7422720716    1.4321054703    2.5507068264
C       -3.8808115058    0.3506523709    3.5824137867
C       -2.7634876299    0.4838183312    2.6633754544
C       -0.7848736539    1.3155524794    1.5169107435
C       -2.8420925135   -0.5664232261    1.7749208858
C       -4.5873763992   -0.7815025797    3.2157750104
C       -5.8371037687   -1.3473621823    3.7156515751
C        1.2532109358    2.3147245475    2.5758927648
C       -0.2276557258    3.7250716729    1.0953547961
C        0.3339325364    2.3235394647    1.3518061300
N       -3.9432585271   -1.3506564944    2.0936536355
O       -6.4818163694   -2.2064048139    3.1287967693
O       -6.2681309705   -0.8125043353    4.8822367125
H       -0.1720639894    0.1169874875   -0.1825012506
H       -1.9972038326   -1.5420410339    0.0550512530
H       -1.6982886210    2.2519857069    3.2568097207
H       -4.1368769157    1.0229420711    4.3924192941
H        0.7078634503    2.6074809198    3.4781429128
H        2.0842825266    3.0116604503    2.4295163996
H        1.6663327753    1.3122235394    2.7263190477
H       -0.8229340556    4.0720467048    1.9452361950
H       -0.8622524745    3.7169767427    0.2034206084
H        0.5889701812    4.4348957210    0.9305525726
H        0.9361843655    2.0432378446    0.4810376560
H       -4.2759748966   -2.1706007086    1.5901476835
H       -7.1027091302   -1.2687486347    5.0754397029
28   

C       -0.9242981775    0.2957631311    0.5687669681
C       -1.9643005485   -0.6367167354    0.6774074984
C       -1.7570470929    1.4679612287    2.5249650806
C       -3.8931746733    0.3776671001    3.5531632264
C       -2.7894559088    0.5299501087    2.6205540215
C       -0.8026223835    1.3604745819    1.4874098002
C       -2.8834676183   -0.4997279868    1.7098119564
C       -4.6110752842   -0.7411827637    3.1681267914
C       -5.8023309394   -1.3745190379    3.7238753191
C        1.2434416277    2.3144844784    2.5756825297
C       -0.2071453224    3.7656574672    1.1045746845
C        0.3328211602    2.3532169897    1.3453707223
N       -3.9849730341   -1.2852652051    2.0236562430
O       -6.3227331952   -2.3789757096    3.2558742072
O       -6.3065837540   -0.7606171316    4.8201214045
H       -0.2068650235    0.1888043612   -0.2366682694
H       -2.0524083267   -1.4517029192   -0.0298830517
H       -1.6990274603    2.2699955362    3.2502942200
H       -4.1200566903    1.0162631103    4.3983812862
H        0.6968253877    2.6040320257    3.4781785608
H        2.0859931340    3.0005026651    2.4440077354
H        1.6404525418    1.3040190623    2.7159388915
H       -0.8047041702    4.1081941376    1.9546793371
H       -0.8345244749    3.7787627663    0.2076181677
H        0.6204688475    4.4663502090    0.9564574586
H        0.9375650625    2.0760031457    0.4753415166
H       -4.3057216055   -2.1159644445    1.5298939497
H       -7.0822978265   -1.2878550995    5.0697343762
