27   

C       -4.3482428192    0.0095629867    1.5992893248
C       -3.0710161919   -1.4971825999    0.2018905560
C       -3.1782156950    0.3869976495    2.2624186659
C       -1.8982541443   -1.0996932314    0.8559290643
C       -4.3105141943   -0.9378493902    0.5599144418
C       -1.9397887842   -0.1620455027    1.9029948663
C       -0.6837359420    1.5177430220    3.9256109427
C        0.8138464595    0.7248316774    1.6896275470
C       -5.5347088794   -1.3838027287   -0.1859329166
C       -6.8028352728   -0.5595854737   -0.0601155550
C       -0.1345392448   -1.2119451131    3.5232607927
O       -5.5037868117   -2.3360930579   -0.9557439155
S       -0.4131291201    0.3901059855    2.7444158855
H       -5.2817907356    0.4643286821    1.9103219879
H       -3.0106907452   -2.2291510568   -0.5979714259
H       -3.2326049761    1.1275678528    3.0550785504
H       -0.9491336273   -1.5214793766    0.5402318854
H       -0.0837128648    2.4173460424    3.9547506847
H       -1.4399745187    1.3560634873    4.6813748086
H        1.4361023811    1.5943880295    1.8548527244
H        0.9855498651    0.1015742264    0.8234173061
H       -6.5800508978    0.5001902540   -0.2099611159
H       -7.2475211452   -0.7078279256    0.9272882350
H       -7.5235201758   -0.8733655140   -0.8209047059
H        0.7450675648   -1.1348888533    4.1653845474
H       -1.0052315219   -1.4762983486    4.1261290429
H        0.0395686462   -1.9684647801    2.7571594804
27   

C       -4.3808273381   -0.0640301999    1.6964848502
C       -3.1022815143   -1.5161853936    0.2418563896
C       -3.2038904756    0.3325468222    2.3361336352
C       -1.9233059890   -1.0994845776    0.8722229561
C       -4.3439849782   -0.9957302678    0.6453361776
C       -1.9614797227   -0.1795896605    1.9356667293
C       -0.6945172112    1.5012314005    3.9502124886
C        0.7606794233    0.7825390598    1.6619572575
C       -5.5745229927   -1.4432099856   -0.0897748728
C       -6.7410593191   -0.4778210177   -0.1889649791
C       -0.0857319201   -1.2072807838    3.4894055477
O       -5.5854883739   -2.4799844987   -0.7416894187
S       -0.4270723363    0.3988696426    2.7447552223
H       -5.3214553864    0.3592707138    2.0307742300
H       -3.0482213855   -2.2319734506   -0.5729586769
H       -3.2560685917    1.0595214792    3.1414182624
H       -0.9723048657   -1.4911738655    0.5249911124
H       -0.1184325280    2.4164357049    3.9764959565
H       -1.4243225274    1.3076172195    4.7242398178
H        1.3633553119    1.6665081876    1.8232544307
H        0.9256222002    0.1765412207    0.7822963814
H       -6.3761700412    0.5378700378   -0.3639254667
H       -7.3246152411   -0.5036710447    0.7347495662
H       -7.3874940827   -0.7640495532   -1.0236529216
H        0.8090139389   -1.1172212678    4.1085104326
H       -0.9323260132   -1.5038921270    4.1112936592
H        0.0866322180   -1.9469090289    2.7065927341
27   

C       -4.3875705602   -0.1039795301    1.7675960403
C       -3.0968796649   -1.5019768800    0.2700915651
C       -3.2110747476    0.3075972363    2.3988532312
C       -1.9187346490   -1.0702861493    0.8917521538
C       -4.3422949139   -1.0194268138    0.7050634066
C       -1.9629969420   -0.1708120773    1.9728616169
C       -0.7045156334    1.5014211007    3.9997286174
C        0.7343918423    0.8523925983    1.6805608108
C       -5.5737723868   -1.4689099375   -0.0301289147
C       -6.6083132631   -0.4171163194   -0.3813399113
C       -0.0461270734   -1.1859745804    3.4840647116
O       -5.6368977640   -2.5813725598   -0.5377575396
S       -0.4303256000    0.4254121998    2.7722532939
H       -5.3363730930    0.2911917393    2.1136797985
H       -3.0431784142   -2.2013588078   -0.5588133338
H       -3.2681356533    1.0197351651    3.2169559487
H       -0.9640581210   -1.4339505709    0.5246905199
H       -0.1476169864    2.4281530021    4.0340180764
H       -1.4192564359    1.2790672670    4.7800779131
H        1.3202315661    1.7463153241    1.8488666364
H        0.9008827948    0.2643871202    0.7890747849
H       -6.1139471265    0.5193756410   -0.6533959436
H       -7.2679533810   -0.2450666253    0.4727298088
H       -7.2084795068   -0.7562416113   -1.2305458246
H        0.8551622162   -1.0883294372    4.0924371814
H       -0.8777949001   -1.5105675417    4.1121090064
H        0.1301762739   -1.9084409838    2.6862413175
27   

C       -4.4124576332   -0.1441430710    1.8727963424
C       -3.1494055623   -1.4691470829    0.2894700850
C       -3.2230478771    0.2745103011    2.4742023204
C       -1.9581641752   -1.0311688664    0.8814500756
C       -4.3862697554   -1.0286118448    0.7852454381
C       -1.9816708241   -0.1653766712    1.9906284091
C       -0.6847395816    1.4779880733    4.0170092578
C        0.6901171275    0.9055652628    1.6391530244
C       -5.6419919912   -1.4758773783    0.0858991540
C       -6.5306625868   -0.3907090430   -0.4878215952
C       -0.0050750196   -1.1863947302    3.4161702021
O       -5.7961829606   -2.6422420915   -0.2513939045
S       -0.4336753208    0.4357142832    2.7559541400
H       -5.3583801524    0.2187172685    2.2601199589
H       -3.1155636248   -2.1440437851   -0.5603060012
H       -3.2655729116    0.9610739619    3.3147239054
H       -1.0100189808   -1.3641344302    0.4708856886
H       -0.1404646425    2.4119671185    4.0566240976
H       -1.3713878584    1.2263180092    4.8135347879
H        1.2678735827    1.8041313522    1.8106517974
H        0.8381064321    0.3406091053    0.7297154744
H       -5.9178108315    0.4120954808   -0.9064694723
H       -7.1726239742    0.0169463110    0.2968147702
H       -7.1586417993   -0.8051404988   -1.2815991949
H        0.9138614689   -1.0904915419    3.9978244306
H       -0.8117407436   -1.5375396336    4.0623280723
H        0.1548886839   -1.8872638451    2.5959443930
27   

C       -4.4162454093   -0.1440535985    1.9956560884
C       -3.2100508022   -1.4342683336    0.3439659231
C       -3.2076248098    0.2645304784    2.5641622511
C       -1.9986351605   -1.0070456687    0.9026275055
C       -4.4280687429   -1.0032668278    0.8886396229
C       -1.9836662175   -0.1632875750    2.0288349615
C       -0.6196546076    1.4382282921    4.0442773086
C        0.6720138697    0.9209766976    1.6078989242
C       -5.7204695383   -1.4390049440    0.2419886151
C       -6.4470653211   -0.3930635208   -0.5772041361
C        0.0428623544   -1.2112174709    3.3622469467
O       -6.0147085174   -2.6225846794    0.1468240906
S       -0.4108358261    0.4239833431    2.7530683327
H       -5.3498834680    0.2059152357    2.4229354757
H       -3.2063698452   -2.0949272099   -0.5172213168
H       -3.2221996283    0.9327875526    3.4202453316
H       -1.0650412129   -1.3318768384    0.4539880238
H       -0.0768161471    2.3729822001    4.0849241665
H       -1.2771631431    1.1671712310    4.8588669946
H        1.2530721293    1.8176200423    1.7783556756
H        0.7895188850    0.3759286267    0.6820450610
H       -5.7264886045    0.2230132876   -1.1217725460
H       -7.0406513983    0.2457408126    0.0813448214
H       -7.1116895596   -0.8792976453   -1.2969247937
H        0.9806221940   -1.1257401950    3.9147543574
H       -0.7409371956   -1.5787173057    4.0272212646
H        0.1765007674   -1.8933720093    2.5218131012
27   

C       -4.4218069992   -0.1299593025    2.0714731181
C       -3.2555117368   -1.3273542539    0.3272788027
C       -3.2015280961    0.2527988181    2.6321865174
C       -2.0313406095   -0.9274019495    0.8792828206
C       -4.4606999716   -0.9138963362    0.9108675281
C       -1.9902492037   -0.1401257704    2.0447420495
C       -0.5783591234    1.3797828081    4.0917511732
C        0.6633350904    0.9460465923    1.6129445150
C       -5.7796197262   -1.3516149503    0.3156984732
C       -6.3687779973   -0.4433651550   -0.7417305889
C        0.0540108542   -1.2454054888    3.2988716592
O       -6.3777734732   -2.3378544329    0.7217124255
S       -0.4011807145    0.4137090103    2.7596948039
H       -5.3476876944    0.1801808934    2.5446307111
H       -3.2667644914   -1.9500150087   -0.5611266849
H       -3.1983906132    0.8705425079    3.5254637120
H       -1.1074914097   -1.2306380160    0.3966046455
H       -0.0281058424    2.3087564231    4.1572574695
H       -1.2229049151    1.0830124649    4.9077491985
H        1.2535617978    1.8321513645    1.8056621313
H        0.7602181343    0.4351472092    0.6655469800
H       -5.7593948912   -0.4869639299   -1.6480286977
H       -6.3947327509    0.5864342060   -0.3757411339
H       -7.3876038089   -0.7618843435   -0.9800678428
H        1.0031190613   -1.1858010799    3.8351608437
H       -0.7187512260   -1.6325471605    3.9656743398
H        0.1660689240   -1.8967397175    2.4312995988
27   

C       -4.4381840884   -0.1044271213    2.1163041479
C       -3.2957234790   -1.2187368276    0.3057521522
C       -3.2118800791    0.2650100041    2.6719509216
C       -2.0647071083   -0.8327949551    0.8531126899
C       -4.4952186106   -0.8308238447    0.9190062281
C       -2.0084843375   -0.0931410918    2.0483278674
C       -0.5688465719    1.3602510835    4.1262904631
C        0.6429073920    1.0032942657    1.6199713825
C       -5.8240149354   -1.2863909270    0.3672960829
C       -6.3018510717   -0.6052973810   -0.8974944316
C        0.0479126042   -1.2375324636    3.2424055430
O       -6.5890048167   -1.9668725164    1.0367801735
S       -0.4109104645    0.4383317282    2.7610670028
H       -5.3590100493    0.1686396155    2.6218692774
H       -3.3141639092   -1.8101209119   -0.6034179843
H       -3.1990291562    0.8418354204    3.5920556870
H       -1.1467803465   -1.1120611048    0.3452939530
H       -0.0126385844    2.2835118377    4.2170120751
H       -1.2071692821    1.0404294841    4.9384706666
H        1.2400487564    1.8794961704    1.8353430373
H        0.7260718428    0.5240405752    0.6549389196
H       -5.8036616347   -1.0440857141   -1.7654164941
H       -6.0749175666    0.4633143767   -0.8545389118
H       -7.3828194333   -0.7332312586   -1.0039125195
H        1.0038131606   -1.1961551887    3.7682500619
H       -0.7170571987   -1.6439616715    3.9067474521
H        0.1475043777   -1.8616312823    2.3535726402
27   

C       -4.4480313717   -0.0620223622    2.1443858862
C       -3.3335113577   -1.1196901758    0.2851788194
C       -3.2141372854    0.2880608064    2.6950248501
C       -2.0943823979   -0.7526114369    0.8277438047
C       -4.5260980413   -0.7493738575    0.9242020106
C       -2.0202011984   -0.0515504991    2.0446662386
C       -0.5494911041    1.3308137671    4.1502097838
C        0.6273922521    1.0554958894    1.6170613524
C       -5.8642697420   -1.1891262629    0.3924812833
C       -6.2258831995   -0.7560313169   -1.0135567274
C        0.0510712197   -1.2359086366    3.1728473387
O       -6.7240953015   -1.6373106362    1.1391851893
S       -0.4124950182    0.4550808100    2.7527488148
H       -5.3609142577    0.1964706190    2.6721075186
H       -3.3612015844   -1.6831869915   -0.6411452769
H       -3.1886825983    0.8352883938    3.6327870581
H       -1.1837620839   -1.0169434886    0.2991995195
H        0.0111689883    2.2486790883    4.2650043990
H       -1.1788760093    0.9860183892    4.9591528320
H        1.2302706664    1.9221846445    1.8538970154
H        0.6950469465    0.6096361052    0.6349771081
H       -5.7534082284   -1.4207887179   -1.7406724167
H       -5.8869629033    0.2687972259   -1.1871279803
H       -7.3106069696   -0.7959524506   -1.1477624582
H        1.0142874194   -1.2121484331    3.6863097189
H       -0.7048794324   -1.6630515293    3.8345121034
H        0.1375950290   -1.8308812968    2.2629546248
27   

C       -4.4334811928   -0.0575019545    2.2242605229
C       -3.3602632500   -1.0355993572    0.3005023671
C       -3.1888904805    0.2789029489    2.7582882136
C       -2.1101696670   -0.6824115683    0.8274367350
C       -4.5415354679   -0.7020477168    0.9814922049
C       -2.0096338404   -0.0290588979    2.0682190598
C       -0.4957503796    1.2915108726    4.1834985651
C        0.6289611330    1.0926856352    1.6192395031
C       -5.8945311045   -1.1144417613    0.4730791262
C       -6.1818128733   -0.9302841964   -1.0044203437
C        0.0832440356   -1.2438775967    3.1171426071
O       -6.8095676257   -1.3682998886    1.2457741547
S       -0.3880567271    0.4588058817    2.7574747523
H       -5.3327793637    0.1815840224    2.7838615601
H       -3.4017450233   -1.5611554835   -0.6471804927
H       -3.1444451072    0.7919700526    3.7144683721
H       -1.2111264869   -0.9198519929    0.2672269931
H        0.0680063523    2.2052725034    4.3147096527
H       -1.1092228522    0.9229385605    4.9941706872
H        1.2371639398    1.9517845067    1.8697531139
H        0.6764712945    0.6765982872    0.6230354534
H       -5.7837215458   -1.7768031728   -1.5692091206
H       -5.7225345806   -0.0051800458   -1.3630529282
H       -7.2617695274   -0.8716748849   -1.1676419454
H        1.0568285684   -1.2354153972    3.6111538120
H       -0.6591389371   -1.6905810514    3.7812578773
H        0.1503860025   -1.8112204676    2.1881619067
27   

C       -4.2216337734    0.7045647610    1.5244518076
C       -3.6042148101   -1.5195377934    0.8303487125
C       -2.9480645720    0.9003775975    2.0600072510
C       -2.3187746152   -1.3163980225    1.3516330080
C       -4.5683908196   -0.5000482721    0.8896741957
C       -1.9788228238   -0.1072165524    1.9824617044
C       -0.0874268526    1.6927877446    3.2841717747
C        0.8914036380   -0.3520095742    1.6291074470
C       -5.9662549242   -0.6944620598    0.3764169724
C       -6.1806562670   -1.6567428589   -0.7774529522
C       -0.5191331890   -0.9913354470    3.9953078853
O       -6.8858796418    0.0222608746    0.7505046290
S       -0.2989622125    0.1816274942    2.6438647824
H       -4.9553339521    1.5011940313    1.6035440177
H       -3.8325591888   -2.4753712216    0.3723529252
H       -2.7119327794    1.8507656074    2.5296562450
H       -1.5794404352   -2.1065169792    1.2644818022
H        0.7842758053    2.2729509665    3.0129769617
H       -0.8019462752    2.1008971487    3.9858176634
H        1.7821876326    0.2470739144    1.4936874880
H        0.7807020898   -1.2765575946    1.0806680323
H       -6.2185450931   -2.6831241143   -0.4039114435
H       -5.3703618404   -1.5600577213   -1.5050807980
H       -7.1261120082   -1.4279167118   -1.2777512301
H        0.3794977168   -0.9758197533    4.6151666578
H       -1.3812023680   -0.6927027889    4.5947545379
H       -0.6667410166   -1.9938918592    3.5922857893
27   

C       -4.2140608126    0.7387815371    1.5172961021
C       -3.5870721371   -1.4616152696    0.7584611866
C       -2.9455749679    0.9197274911    2.0695278225
C       -2.3065550062   -1.2719376091    1.2969891919
C       -4.5563186571   -0.4484044176    0.8468584952
C       -1.9743560330   -0.0834913484    1.9694256722
C       -0.0977095292    1.6763228620    3.3458966090
C        0.8995084180   -0.3082255920    1.6295154573
C       -5.9440993839   -0.6186593543    0.2998003450
C       -6.2119255793   -1.7638552265   -0.6597871918
C       -0.5264895218   -1.0312606018    3.9615430020
O       -6.8295200120    0.1917224028    0.5426075450
S       -0.3001880981    0.1875941263    2.6524067085
H       -4.9463081755    1.5352134743    1.6107967016
H       -3.7985322028   -2.4035655216    0.2657607398
H       -2.7143238791    1.8563932946    2.5683035489
H       -1.5638268607   -2.0562736484    1.1888407062
H        0.7749067540    2.2672352930    3.1022243645
H       -0.8193828725    2.0588726321    4.0545777559
H        1.7899811621    0.2969772068    1.5221190017
H        0.7951380546   -1.2131628773    1.0481133939
H       -6.2148467191   -2.7127945492   -0.1173962975
H       -5.4496539429   -1.7862964879   -1.4431372026
H       -7.1890922971   -1.6270013953   -1.1321163136
H        0.3675537163   -1.0341098019    4.5881816870
H       -1.3938604190   -0.7556721284    4.5643484949
H       -0.6678247179   -2.0199687355    3.5235894733
27   

C       -4.2221695414    0.7695378496    1.4980511343
C       -3.5737315108   -1.4015995069    0.6760367570
C       -2.9613108810    0.9394712517    2.0708923034
C       -2.3009253210   -1.2223574194    1.2361144975
C       -4.5521734655   -0.3994649591    0.7899398255
C       -1.9833866444   -0.0547700903    1.9505198194
C       -0.1275184445    1.6757985556    3.3911397851
C        0.8948110715   -0.2586017399    1.6326739545
C       -5.9256826855   -0.5466895307    0.2006526628
C       -6.2678760456   -1.8241180250   -0.5443273111
C       -0.5508314352   -1.0488983951    3.9303062525
O       -6.7691634018    0.3332911105    0.3185545949
S       -0.3169500298    0.2052307934    2.6564487460
H       -4.9572179872    1.5618968920    1.6034472947
H       -3.7665863590   -2.3246797130    0.1420827366
H       -2.7403098696    1.8621953149    2.5994058396
H       -1.5511717450   -1.9970265604    1.1084179862
H        0.7448921933    2.2763903090    3.1715004616
H       -0.8576681036    2.0369160506    4.1023411859
H        1.7835420654    0.3530008843    1.5498282518
H        0.8003351197   -1.1483687439    1.0266896991
H       -6.1708773946   -2.6853655263    0.1217809263
H       -5.6071015875   -1.9439008312   -1.4069094173
H       -7.3006188843   -1.7758220846   -0.9018778514
H        0.3377556240   -1.0659446599    4.5644375428
H       -1.4242771785   -0.7920290032    4.5325739973
H       -0.6852845676   -2.0258004811    3.4645543235
27   

C       -4.1911900160    0.7779267152    1.4568358200
C       -3.5194672300   -1.3742824164    0.6032284418
C       -2.9428058802    0.9388791495    2.0588590612
C       -2.2586033894   -1.2034484349    1.1921545264
C       -4.5042528527   -0.3794008216    0.7230724694
C       -1.9596510422   -0.0503931710    1.9379434391
C       -0.1440820427    1.6508984287    3.4619666243
C        0.9249776116   -0.2172725118    1.6606318160
C       -5.8567386907   -0.5116397673    0.0845874935
C       -6.2946459247   -1.8770409638   -0.4136132894
C       -0.5480383216   -1.0931773354    3.9091987314
O       -6.6435661759    0.4262888788    0.0575027963
S       -0.3073288890    0.2023521528    2.6788378004
H       -4.9292671567    1.5680116633    1.5580529248
H       -3.6992368662   -2.2806132669    0.0366168869
H       -2.7342716370    1.8521199723    2.6085324044
H       -1.5026704365   -1.9712596902    1.0596575835
H        0.7256947651    2.2662896272    3.2752872806
H       -0.8893235896    1.9828263958    4.1717391275
H        1.8089174667    0.4048377800    1.6115440472
H        0.8481266508   -1.0873741543    1.0243384236
H       -6.1083760711   -2.6363321641    0.3504460604
H       -5.7537683027   -2.1310370763   -1.3288981323
H       -7.3663272181   -1.8623081265   -0.6326192587
H        0.3301218904   -1.1200932238    4.5573546590
H       -1.4342053570   -0.8646104032    4.5042105534
H       -0.6632927378   -2.0565933677    3.4113569481
27   

C       -4.2158033529    0.7548844866    1.4525686424
C       -3.5019315319   -1.3574016490    0.5359401149
C       -2.9774946386    0.9122972001    2.0764385345
C       -2.2512601320   -1.1902765243    1.1468489980
C       -4.5035223185   -0.3835481669    0.6811245663
C       -1.9789009347   -0.0593427316    1.9358819013
C       -0.2058089166    1.6155304608    3.5379040306
C        0.9115913576   -0.1767291158    1.6893597646
C       -5.8368665386   -0.5055728006    0.0008454661
C       -6.3846560537   -1.8965271660   -0.2626681008
C       -0.5756223380   -1.1467783509    3.8886536223
O       -6.5558024776    0.4714076522   -0.1657904536
S       -0.3391726874    0.1920325306    2.7047547162
H       -4.9654445545    1.5326320234    1.5636685989
H       -3.6689218301   -2.2406505317   -0.0703473171
H       -2.7878360323    1.8104301037    2.6569703788
H       -1.4821854785   -1.9414865447    0.9961028211
H        0.6580546346    2.2480116259    3.3836266687
H       -0.9648450466    1.9140603699    4.2478616923
H        1.7877281905    0.4580180424    1.6730791600
H        0.8544743059   -1.0254084120    1.0227643881
H       -6.1614342557   -2.5567484493    0.5796077589
H       -5.9421069677   -2.3031292029   -1.1755553473
H       -7.4702189275   -1.8478004664   -0.3881413357
H        0.2954523041   -1.1831749493    4.5458448522
H       -1.4716020122   -0.9502021624    4.4803558912
H       -0.6716159838   -2.0945563755    3.3577931056
27   

C       -4.2040445197    0.7715039793    1.4036708396
C       -3.4455602006   -1.3090920752    0.4516645659
C       -2.9792893644    0.9299349427    2.0538989497
C       -2.2080269075   -1.1409135494    1.0882430043
C       -4.4628448900   -0.3540081309    0.6051976206
C       -1.9653751694   -0.0256486195    1.9091493276
C       -0.2484373072    1.6282070328    3.5923705662
C        0.9305660859   -0.0807645985    1.7040709942
C       -5.7763609643   -0.4697080041   -0.1167952431
C       -6.4578904304   -1.8245601312   -0.1369137747
C       -0.5686664412   -1.1500627585    3.8476746984
O       -6.3977304765    0.5277958853   -0.4593359369
S       -0.3422713665    0.2307913203    2.7110300199
H       -4.9653600818    1.5381282105    1.5120725739
H       -3.5972715170   -2.1759741188   -0.1820434422
H       -2.8108321051    1.8176178014    2.6566439008
H       -1.4259582808   -1.8773402662    0.9316321348
H        0.6060132934    2.2807543784    3.4731949019
H       -1.0243071869    1.8896451895    4.2987379411
H        1.7952767696    0.5693771870    1.7234325037
H        0.8984778114   -0.9063028831    1.0073846850
H       -6.3134582585   -2.3313097529    0.8209278208
H       -6.0414514917   -2.4380183625   -0.9396321502
H       -7.5306683217   -1.6975362703   -0.3084504268
H        0.2935770395   -1.1904331273    4.5161936050
H       -1.4767387184   -0.9904394374    4.4319685028
H       -0.6375948109   -2.0819285493    3.2853958393
27   

C       -4.1849184041    0.7088489953    1.3707623832
C       -3.3570585118   -1.3266086806    0.3753639737
C       -2.9762020066    0.8780323518    2.0482839985
C       -2.1359379157   -1.1468191053    1.0395744981
C       -4.3983977144   -0.4013977464    0.5408214817
C       -1.9367082531   -0.0496616921    1.8966707974
C       -0.2924424308    1.5935734529    3.6617053696
C        0.9641303476   -0.0292270490    1.7475398307
C       -5.6904743889   -0.5369377405   -0.2206793346
C       -6.4898002691   -1.8063875157   -0.0059985335
C       -0.5487223209   -1.1971452255    3.8279525830
O       -6.2126252185    0.4327372182   -0.7539259537
S       -0.3355678672    0.2220325999    2.7368243341
H       -4.9672575098    1.4536813130    1.4796673796
H       -3.4805929015   -2.1761708820   -0.2875248587
H       -2.8393324024    1.7528325477    2.6772879722
H       -1.3328808328   -1.8588193863    0.8763674951
H        0.5491946716    2.2682524427    3.5806493697
H       -1.0887313063    1.8160192006    4.3586107346
H        1.8134273707    0.6386982410    1.8053633953
H        0.9647348858   -0.8325829651    1.0246459447
H       -6.4254090343   -2.1164533976    1.0403273867
H       -6.0994472319   -2.6029942230   -0.6439386356
H       -7.5397523504   -1.6317862072   -0.2578236435
H        0.3016488120   -1.2364102085    4.5115756558
H       -1.4712412026   -1.0772013400    4.3989182523
H       -0.5837832649   -2.1132576151    3.2373478136
27   

C       -4.1889377636    0.6730719682    1.3286180952
C       -3.3027936965   -1.3228581968    0.3001728804
C       -2.9933358805    0.8519800303    2.0272102500
C       -2.0950316226   -1.1320470648    0.9850631341
C       -4.3627136529   -0.4216210022    0.4710180611
C       -1.9318098212   -0.0502488337    1.8694918133
C       -0.3537703401    1.5774736295    3.7079823134
C        0.9695467166    0.0524980697    1.7590731677
C       -5.6446736539   -0.5849912032   -0.3096826779
C       -6.5731713647   -1.6943565590    0.1375361557
C       -0.5342690074   -1.2223752772    3.7814003475
O       -6.0404368732    0.2880234075   -1.0693285642
S       -0.3486576900    0.2364216787    2.7384134006
H       -4.9893877798    1.3972472777    1.4424023036
H       -3.4031137245   -2.1596712412   -0.3827574406
H       -2.8833088038    1.7145160991    2.6780666337
H       -1.2748553955   -1.8231241443    0.8171855319
H        0.4711115555    2.2756802039    3.6610591599
H       -1.1648944350    1.7562561544    4.4003091321
H        1.8007656068    0.7390460762    1.8511408690
H        0.9992665424   -0.7246663117    1.0086224291
H       -6.5846945025   -1.7548871028    1.2289963092
H       -6.2338743413   -2.6486468430   -0.2726137222
H       -7.5887395510   -1.4950261751   -0.2162181146
H        0.3085279904   -1.2591422082    4.4744925999
H       -1.4667298051   -1.1471151793    4.3437325371
H       -0.5352453698   -2.1199306450    3.1619723297
27   

C       -4.2082853885    0.6010466973    1.2988819198
C       -3.2460152111   -1.3239299654    0.2012285185
C       -3.0242274864    0.7910893801    2.0146398409
C       -2.0513022015   -1.1209179721    0.9046747925
C       -4.3294766277   -0.4541858033    0.3850354507
C       -1.9309735411   -0.0676064342    1.8299022493
C       -0.4193109870    1.5464609727    3.7343623528
C        0.9679327552    0.1183144247    1.7565825850
C       -5.6149615507   -0.6744051349   -0.3797598735
C       -6.6451603233   -1.5605455924    0.2877461745
C       -0.5229357488   -1.2584731922    3.7212686852
O       -5.7670373759   -0.2657237264   -1.5219228101
S       -0.3656205943    0.2358927261    2.7250678097
H       -5.0360924407    1.2866362896    1.4466057146
H       -3.3206370374   -2.1403004496   -0.5096693469
H       -2.9488696363    1.6269060903    2.7041258580
H       -1.2093479482   -1.7811262042    0.7210923830
H        0.3858067070    2.2687236340    3.7170319756
H       -1.2414445921    1.6810150279    4.4236316745
H        1.7786362064    0.8243743436    1.8788356222
H        1.0279198057   -0.6351574616    0.9840357816
H       -7.1074682938   -1.0256864492    1.1212518007
H       -6.1688188051   -2.4697454839    0.6637457713
H       -7.4199357557   -1.8374349739   -0.4329194599
H        0.3139792029   -1.2949000956    4.4214700158
H       -1.4622938376   -1.2247012493    4.2760498179
H       -0.4948175599   -2.1362472426    3.0746507160
27   

C       -4.2110875769    0.5283436885    1.3014844481
C       -3.1639766785   -1.3300375306    0.1640888181
C       -3.0404331629    0.7458452663    2.0317372540
C       -1.9839239553   -1.0983273930    0.8826966788
C       -4.2782694235   -0.5000400064    0.3514471683
C       -1.9122052583   -0.0636408770    1.8338644971
C       -0.4840412659    1.5541626498    3.7977747568
C        0.9770661335    0.2409635522    1.7940249459
C       -5.5526347132   -0.7931453204   -0.4023735752
C       -6.6777805187   -1.4133370126    0.4002738803
C       -0.4731180992   -1.2516160064    3.7047214415
O       -5.5776656149   -0.8106533378   -1.6251078117
S       -0.3680880699    0.2758978727    2.7527349845
H       -5.0689396389    1.1706972555    1.4694496973
H       -3.2066918417   -2.1357163745   -0.5620541519
H       -3.0041495776    1.5628169158    2.7465149779
H       -1.1170827305   -1.7235769677    0.6927408847
H        0.2906345565    2.3091221896    3.8078763399
H       -1.3158787051    1.6345794859    4.4838245960
H        1.7570959514    0.9756910741    1.9436827881
H        1.0742448554   -0.4873573896    1.0013465950
H       -7.2249059361   -0.6326192204    0.9343162219
H       -6.2734820098   -2.1278838058    1.1221130600
H       -7.3666239422   -1.9375757113   -0.2682052894
H        0.3582029780   -1.2741358840    4.4121350638
H       -1.4180567380   -1.2721689137    4.2505885564
H       -0.4031746076   -2.1087346976    3.0339800546
27   

C       -4.2214548799    0.4386143076    1.3291736478
C       -3.1124549210   -1.3531654813    0.1398591527
C       -3.0550987202    0.6788503841    2.0595355479
C       -1.9386246275   -1.0973499905    0.8599554515
C       -4.2548099593   -0.5660383003    0.3514405747
C       -1.8994450629   -0.0843650720    1.8361022853
C       -0.5179416446    1.5383999380    3.8281542466
C        0.9770096195    0.3175410741    1.7912996482
C       -5.5109527480   -0.9022391278   -0.4071604098
C       -6.7359247782   -1.2563795636    0.4126320418
C       -0.4141408219   -1.2640396155    3.6755604913
O       -5.4753179942   -1.1661990558   -1.6015909183
S       -0.3635206883    0.2863340296    2.7566354688
H       -5.1000810405    1.0452928433    1.5200413904
H       -3.1297103507   -2.1437912550   -0.6040754015
H       -3.0441015786    1.4774754779    2.7955528814
H       -1.0515165502   -1.6874515635    0.6519821625
H        0.2296568788    2.3199724792    3.8490477065
H       -1.3472870937    1.5751393674    4.5209002689
H        1.7313520275    1.0764685746    1.9514156463
H        1.0960502281   -0.3920941126    0.9847538003
H       -7.2494104689   -0.3438508326    0.7251110820
H       -6.4423340191   -1.8273028749    1.2974924417
H       -7.4216097296   -1.8625206389   -0.1862765400
H        0.4212380494   -1.2751319622    4.3784470374
H       -1.3550229293   -1.3270627877    4.2251709025
H       -0.3203671647   -2.1037329145    2.9859102201
27   

C       -4.2961854309    0.3516051928    1.3414197203
C       -3.1272404915   -1.3842180745    0.1243676548
C       -3.1325874928    0.6314711846    2.0621811598
C       -1.9577015864   -1.0869058870    0.8350603027
C       -4.3010067146   -0.6484120983    0.3566431149
C       -1.9499288019   -0.0832556363    1.8212024014
C       -0.6203620090    1.5624663939    3.8290461316
C        0.9055620233    0.4437471981    1.7570601632
C       -5.5420513108   -1.0362612518   -0.3973081660
C       -6.8409699635   -1.1209980262    0.3814338932
C       -0.3964273499   -1.2301035133    3.6259207117
O       -5.4769442122   -1.5054381271   -1.5262965622
S       -0.4223254738    0.3368786342    2.7343155679
H       -5.1934962730    0.9241657716    1.5491534207
H       -3.1166212155   -2.1705046939   -0.6244915608
H       -3.1456419648    1.4230328844    2.8057793278
H       -1.0498417754   -1.6390312847    0.6128600024
H        0.0925732684    2.3755602037    3.8568869160
H       -1.4432167194    1.5503190691    4.5303738329
H        1.6276686444    1.2320934436    1.9234798507
H        1.0472213460   -0.2462097848    0.9371848503
H       -7.2846610568   -0.1265103660    0.4728021727
H       -6.6555431643   -1.5299473981    1.3782105657
H       -7.5443241774   -1.7758167653   -0.1409505208
H        0.4443740239   -1.2163564089    4.3222567630
H       -1.3290284051   -1.3447324183    4.1812957161
H       -0.2710831522   -2.0527576546    2.9209108971
27   

C       -4.2787099320    0.2829968637    1.3649739577
C       -3.0656867710   -1.3854433415    0.0992538722
C       -3.1222108304    0.5729420119    2.0928883952
C       -1.9038174256   -1.0768773060    0.8177262720
C       -4.2621715046   -0.6938405679    0.3547484390
C       -1.9217278823   -0.1029498540    1.8324564472
C       -0.6370783133    1.5197890866    3.8864744208
C        0.9174273521    0.5027840963    1.7836418687
C       -5.4874695608   -1.0830761863   -0.4210336051
C       -6.8421701634   -0.9075195046    0.2405136241
C       -0.3378428733   -1.2600005265    3.6038932695
O       -5.4039916301   -1.6947983606   -1.4787118453
S       -0.4056317105    0.3309763847    2.7581764478
H       -5.1855495357    0.8324779571    1.5917373740
H       -3.0296861258   -2.1498159346   -0.6712359036
H       -3.1552631953    1.3432603585    2.8578799194
H       -0.9816522621   -1.5975110557    0.5790379782
H        0.0515594422    2.3525794694    3.9355353056
H       -1.4572868226    1.4637760126    4.5887942106
H        1.6160622836    1.3075079879    1.9705826839
H        1.0787709626   -0.1611997006    0.9461541569
H       -7.1632249113    0.1339906017    0.1582845726
H       -6.7879511482   -1.1927765182    1.2944865424
H       -7.5804676090   -1.5446947564   -0.2549329768
H        0.5021868905   -1.2441148883    4.3011088962
H       -1.2671316280   -1.4156828841    4.1548440614
H       -0.1906225612   -2.0581882956    2.8753672347
27   

C       -4.2962966350    0.1854994860    1.4149334150
C       -3.0580998122   -1.4288913767    0.1066182327
C       -3.1352459729    0.5018293110    2.1242749506
C       -1.8925465457   -1.0932515479    0.8066049064
C       -4.2734160238   -0.7826666104    0.3939489345
C       -1.9203058487   -0.1332886904    1.8335248260
C       -0.6487519567    1.5038523219    3.8829617408
C        0.8951089086    0.5650863684    1.7364878802
C       -5.4960897906   -1.1869897160   -0.3779003455
C       -6.8562215643   -0.7616630620    0.1442899676
C       -0.2655901595   -1.2622489839    3.5577418183
O       -5.4240101226   -1.9285552925   -1.3501055657
S       -0.4007902374    0.3367468219    2.7356282431
H       -5.2095020361    0.7107382122    1.6702788452
H       -3.0095150024   -2.1816702103   -0.6745110417
H       -3.1768318939    1.2622688342    2.8986914840
H       -0.9596124370   -1.5817847034    0.5431927969
H        0.0112549232    2.3597662655    3.9273517285
H       -1.4508241602    1.4108172450    4.6021225862
H        1.5688624958    1.3919225707    1.9181945690
H        1.0624353126   -0.0842774990    0.8887805530
H       -6.9989641712    0.3098711708   -0.0178041296
H       -6.9398018759   -0.9891060208    1.2102686067
H       -7.6419545520   -1.3049516443   -0.3887358215
H        0.5870544834   -1.2286496843    4.2388155659
H       -1.1784590932   -1.4550400090    4.1242173453
H       -0.1074888388   -2.0456092207    2.8155244760
27   

C       -4.3245497258    0.0955210941    1.5115962932
C       -3.0507774419   -1.4597438246    0.1661995464
C       -3.1613643951    0.4574026920    2.1949864030
C       -1.8842513788   -1.0781736335    0.8406441987
C       -4.2860644653   -0.8679406952    0.4859563786
C       -1.9280762589   -0.1243608776    1.8725834309
C       -0.6794619346    1.5609067021    3.8959892458
C        0.8525856600    0.6891751419    1.7130507877
C       -5.5055591273   -1.3108677551   -0.2699716271
C       -6.8432210348   -0.6783921397    0.0675495393
C       -0.1909589503   -1.1878536038    3.5560884007
O       -5.4431344129   -2.1685683748   -1.1422999107
S       -0.4090798683    0.4057991306    2.7415530835
H       -5.2515261856    0.5799818395    1.7956673900
H       -2.9876163568   -2.2059582564   -0.6201593907
H       -3.2167813307    1.2116488513    2.9745687131
H       -0.9380251381   -1.5258108438    0.5530787848
H       -0.0562835038    2.4446170018    3.9254771385
H       -1.4590184858    1.4330004535    4.6343147990
H        1.4938780271    1.5445319437    1.8795872233
H        1.0288904948    0.0467064176    0.8619316170
H       -6.8021415100    0.4001161684   -0.1061360254
H       -7.0993656566   -0.8766873233    1.1115487335
H       -7.6236357933   -1.1043599618   -0.5697975594
H        0.6746344384   -1.1211125719    4.2181081407
H       -1.0824417842   -1.4184600399    4.1421821816
H       -0.0181997047   -1.9628259702    2.8083421386
