30   

C       -1.4634858391    0.9933098403    0.9628937678
C       -1.2247284584   -0.2443340519    1.5625510709
C       -0.4757337170    1.5789007545    0.1698336866
C        5.5558680072    1.2128107927   -1.2710430133
C       -0.0016993567   -0.8969106170    1.3688503563
C        0.7477037619    0.9281694446   -0.0229358261
C        5.2003829747   -0.0063450240   -1.8400493870
C        4.8966747834    1.6492797374   -0.1265131211
C        1.0067420072   -0.3261700446    0.5726806518
C        3.4642495892   -0.3164043582   -0.1651246874
C        4.1833830602   -0.7903296283   -1.2889896918
C        3.8639224514    0.8971572577    0.4371009172
C        2.2913810884   -1.0575555883    0.3842140039
C        3.8370599026   -3.1689351220   -1.0938608230
C        3.5882836882   -3.0947528839    0.4170010450
N        2.3654233645   -2.3246703826    0.7352475947
N        3.9405147336   -2.0364105562   -1.8675120262
O        3.9880827854   -4.2404801963   -1.6595243814
F        3.2686822149    1.3518394072    1.5644944904
H       -2.4128741200    1.4957298863    1.1104913059
H       -1.9888402765   -0.7039033673    2.1791577434
H       -0.6588100782    2.5372401289   -0.3027126839
H        6.3519599281    1.8082701482   -1.7059334035
H        0.1489941967   -1.8573945997    1.8503169004
H        1.4830404937    1.4032020961   -0.6616913223
H        5.7389520861   -0.3566936931   -2.7130547712
H        5.1811391796    2.5845757676    0.3409149713
H        3.4787906167   -4.1154870848    0.7937604657
H        4.4602442759   -2.6536596776    0.9079483987
H        4.2558644062   -2.2378608505   -2.8076859972
30   

C       -1.4062173454    1.0701948077    1.0105784902
C       -1.1127150865   -0.0877357859    1.7338957612
C       -0.5066214103    1.5309006733    0.0474258234
C        5.5563606784    1.2228645131   -1.1864808476
C        0.0729570879   -0.7897681393    1.4875012855
C        0.6795994116    0.8302031865   -0.1960664802
C        5.2444620941    0.0038053158   -1.7803958510
C        4.8357119877    1.6434121517   -0.0737461322
C        0.9777853201   -0.3570938044    0.5053286860
C        3.4370081711   -0.3438618499   -0.1901524682
C        4.2125544275   -0.7974401551   -1.2845574544
C        3.7870976798    0.8743869116    0.4349503024
C        2.2481215831   -1.1034158293    0.2910800637
C        3.8556649584   -3.1821060021   -1.1495828195
C        3.5449738093   -3.1380180858    0.3509399761
N        2.3141155697   -2.3700069641    0.6429698649
N        4.0045803846   -2.0352692832   -1.8938519132
O        4.0218833748   -4.2426556275   -1.7313920810
F        3.1333575590    1.3176368692    1.5341173864
H       -2.3272539121    1.6104865419    1.1984633284
H       -1.8039069980   -0.4450729146    2.4887420932
H       -0.7281598401    2.4314575720   -0.5139213626
H        6.3643388943    1.8320112140   -1.5783400502
H        0.2801223683   -1.6824317147    2.0683879683
H        1.3599392163    1.2059497006   -0.9521907247
H        5.8272089124   -0.3314375370   -2.6306487381
H        5.0833887853    2.5798984794    0.4118771897
H        3.4176692297   -4.1663106916    0.7006188555
H        4.3987170330   -2.7120113077    0.8851736598
H        4.3621736264   -2.2192169179   -2.8224740972
30   

C       -1.3432648482    1.1340608583    1.0235589303
C       -0.9721824722    0.0747296729    1.8550945985
C       -0.5531795787    1.4552798832   -0.0823085427
C        5.5677117206    1.2303083770   -1.0937488054
C        0.1766908086   -0.6726767159    1.5705439685
C        0.5965756390    0.7086130494   -0.3616896947
C        5.2955431086    0.0154672509   -1.7147691630
C        4.7906686718    1.6324753107   -0.0129348584
C        0.9550072189   -0.3946449240    0.4381513116
C        3.4220056168   -0.3697718904   -0.2112912901
C        4.2496712404   -0.8010134890   -1.2763479738
C        3.7270799018    0.8484917215    0.4386196406
C        2.2192823203   -1.1462883211    0.2003763477
C        3.8865223253   -3.1898192737   -1.2067920067
C        3.5181411483   -3.1779712355    0.2811956125
N        2.2795990635   -2.4132736459    0.5492759096
N        4.0750723524   -2.0278980340   -1.9175436324
O        4.0684013414   -4.2378039684   -1.8063427731
F        3.0194399665    1.2785437472    1.5091949867
H       -2.2361593673    1.7094584141    1.2407170454
H       -1.5726836499   -0.1685814766    2.7242181839
H       -0.8295071096    2.2845360395   -0.7235182207
H        6.3867611237    1.8516588610   -1.4408720205
H        0.4574072460   -1.4831424813    2.2350355170
H        1.2053517194    0.9775588850   -1.2180715652
H        5.9190154125   -0.3033103518   -2.5421367221
H        5.0047080880    2.5668610709    0.4923064968
H        3.3758562298   -4.2137171135    0.6019451407
H        4.3526337854   -2.7675802447    0.8563709193
H        4.4723180774   -2.1923199703   -2.8336696417
30   

C       -1.2856170550    1.1907781797    0.9998419169
C       -0.8144339628    0.2683628629    1.9372845404
C       -0.6200914936    1.3392089073   -0.2191059248
C        5.5887572183    1.2330874091   -0.9838809994
C        0.3055413916   -0.5188820414    1.6451010390
C        0.5014090749    0.5524766054   -0.5037977697
C        5.3431810540    0.0283366106   -1.6342932369
C        4.7720182606    1.6146376647    0.0745559575
C        0.9461565219   -0.4278208822    0.4029578978
C        3.4219240389   -0.3918800853   -0.2007514707
C        4.2863866579   -0.7993613555   -1.2461000811
C        3.6964584190    0.8197883176    0.4762126381
C        2.2093964419   -1.1829946519    0.1494472314
C        3.9154653251   -3.1898268764   -1.2480016465
C        3.5045980787   -3.2153271883    0.2287161322
N        2.2621383831   -2.4528549496    0.4853062091
N        4.1342767588   -2.0110824449   -1.9211512710
O        4.1065397445   -4.2224726158   -1.8708022582
F        2.9514882614    1.2348618062    1.5267846348
H       -2.1565548974    1.7968820274    1.2225320020
H       -1.3131381917    0.1641455065    2.8941340981
H       -0.9695434830    2.0667056174   -0.9428552841
H        6.4163960819    1.8635474112   -1.2919676482
H        0.6741024321   -1.2187010233    2.3876852625
H        1.0226030993    0.6904548801   -1.4449297422
H        5.9949976008   -0.2728610930   -2.4462393352
H        4.9632729833    2.5421533671    0.6011123183
H        3.3496772954   -4.2587206460    0.5172501088
H        4.3244405878   -2.8245144800    0.8374888425
H        4.5595049171   -2.1532130451   -2.8284379221
30   

C       -1.2958399714    1.2223560189    0.9218569423
C       -0.6912400493    0.5209242963    1.9677231517
C       -0.7635247947    1.1358975645   -0.3664898851
C        5.6299435340    1.2049411322   -0.8597973224
C        0.4282221942   -0.2815938622    1.7183203077
C        0.3582961751    0.3348248080   -0.6070008755
C        5.3641796574    0.0303503069   -1.5549172936
C        4.8162332493    1.5620210244    0.2088840380
C        0.9367403781   -0.4283160278    0.4227237435
C        3.4308166150   -0.4093865093   -0.1413538925
C        4.2912161522   -0.7916605089   -1.2005135876
C        3.7243086543    0.7735160373    0.5777879858
C        2.2006859716   -1.1926485338    0.1667090963
C        3.8708441770   -3.1728622126   -1.3076145954
C        3.4466316238   -3.2545314280    0.1630532674
N        2.2180797013   -2.4772113783    0.4399704392
N        4.1176230718   -1.9705233667   -1.9269956294
O        4.0444057865   -4.1806098726   -1.9747431483
F        2.9858102237    1.1683101450    1.6393114972
H       -2.1671238402    1.8391305744    1.1114547039
H       -1.0862238075    0.5999559923    2.9741278300
H       -1.2171648408    1.6913444203   -1.1794532568
H        6.4695910476    1.8314461780   -1.1423608598
H        0.9019474093   -0.8102882539    2.5384847292
H        0.7756839825    0.2885092438   -1.6070144401
H        6.0119247065   -0.2512395438   -2.3770742416
H        5.0221017925    2.4664217730    0.7690452530
H        3.2665736314   -4.3059506025    0.4039061508
H        4.2687427091   -2.9080912437    0.7951351536
H        4.5439540644   -2.0816535087   -2.8380941771
30   

C       -1.2798229103    0.7099962216    0.6773975952
C       -0.4826850986    0.4369245054    1.7913703364
C       -0.8431939180    0.3309888652   -0.5935391300
C        5.8622121542    1.3362901152   -0.6952313680
C        0.7486887373   -0.2099599020    1.6321441983
C        0.3886534483   -0.3147472009   -0.7453626819
C        5.5953520201    0.2529984593   -1.5226735160
C        5.0865152826    1.5295926957    0.4400952381
C        1.2052906993   -0.5911517019    0.3652192855
C        3.7296417080   -0.4215961943   -0.1028574088
C        4.5570586354   -0.6379702901   -1.2383110205
C        4.0311612417    0.6685552663    0.7483910187
C        2.5272318271   -1.2719643713    0.1447278193
C        4.2201781965   -2.9975302705   -1.6658789537
C        3.7817206235   -3.2944919494   -0.2317814177
N        2.5317394760   -2.5842907655    0.1103309365
N        4.3927848826   -1.7113027630   -2.1167140002
O        4.4525202265   -3.8969014145   -2.4583556819
F        3.3409862595    0.9053313174    1.8839626988
H       -2.2347098256    1.2088955048    0.7991290743
H       -0.8199003963    0.7210383657    2.7816851998
H       -1.4584953444    0.5346049856   -1.4625833526
H        6.6736165135    2.0178833405   -0.9284693920
H        1.3435101392   -0.4339462117    2.5104396967
H        0.7189633984   -0.6080211809   -1.7361144861
H        6.2152880481    0.0978801956   -2.3981832002
H        5.2947265494    2.3617081167    1.1021222159
H        3.6208695932   -4.3722693997   -0.1400741624
H        4.5843161988   -3.0185278423    0.4578903794
H        4.8090134915   -1.6828581083   -3.0385811036
30   

C       -1.3668988636    0.5643842242    0.6258946907
C       -0.4546865051    0.6708642145    1.6758397825
C       -1.0133572346   -0.1479866144   -0.5187908912
C        5.9150391120    1.3269456139   -0.5373988059
C        0.8148485308    0.0883425282    1.5708807315
C        0.2552867370   -0.7282436036   -0.6150004712
C        5.5237324604    0.3888743549   -1.4832071025
C        5.2711272725    1.3572575635    0.6923235058
C        1.2153879045   -0.5823349093    0.4074991836
C        3.7654880521   -0.4308156642    0.0001048458
C        4.4799453015   -0.5041365482   -1.2285384163
C        4.2168095940    0.4862764639    0.9773549486
C        2.5418808964   -1.2651962186    0.2249849833
C        4.1001139638   -2.7886248317   -1.8996350409
C        3.7274947186   -3.2435347432   -0.4892127747
N        2.5036329507   -2.5540882271   -0.0322366075
N        4.2170358677   -1.4562851017   -2.2160732596
O        4.3039219913   -3.5939159414   -2.7946074377
F        3.6881672548    0.5295663385    2.2164077633
H       -2.3489747144    1.0168045048    0.7058168090
H       -0.7349832294    1.1948598955    2.5825560874
H       -1.7207536288   -0.2558506897   -1.3332027841
H        6.7283958525    2.0130178645   -0.7497966376
H        1.4540396487    0.1474548226    2.4386245549
H        0.5111708929   -1.2888234581   -1.5081837459
H        6.0539466866    0.3444493967   -2.4275864842
H        5.5887581508    2.0633149549    1.4503012086
H        3.5508113368   -4.3225387392   -0.5090152683
H        4.5622208868   -3.0531266194    0.1915317915
H        4.5713791878   -1.3225612771   -3.1542167200
30   

C       -1.4130834291    0.5075578786    0.6362940986
C       -0.4056645384    0.8921601617    1.5188108898
C       -1.1340861906   -0.4394214186   -0.3453396088
C        5.9434677531    1.3336968590   -0.3816647536
C        0.8805870571    0.3491092431    1.4055235977
C        0.1513713840   -0.9793899259   -0.4496693234
C        5.4991827292    0.5048733460   -1.4052618265
C        5.3540998080    1.2377183616    0.8740323184
C        1.2103537855   -0.5631871582    0.3913634498
C        3.7753018618   -0.4187882330    0.0482782042
C        4.4480861561   -0.3919456928   -1.2010087042
C        4.2933767613    0.3581893623    1.1060919181
C        2.5378759208   -1.2458880739    0.2399356253
C        4.0546385632   -2.6253324270   -1.9987842154
C        3.7340591141   -3.1685946479   -0.6033198218
N        2.5135015458   -2.5241869356   -0.0747509961
N        4.1493396662   -1.2739168950   -2.2412600309
O        4.2342892474   -3.3752784180   -2.9455884337
F        3.8252498013    0.2380560876    2.3672444505
H       -2.4075502571    0.9312587922    0.7203337456
H       -0.6210284893    1.6110965700    2.3011469258
H       -1.9122891318   -0.7615300440   -1.0279796096
H        6.7627672473    2.0240051508   -0.5537082880
H        1.6017842276    0.6733874438    2.1375984210
H        0.3340220764   -1.7232085387   -1.2184053517
H        5.9972596157    0.5428599054   -2.3672484355
H        5.7238171130    1.8444908122    1.6919450565
H        3.5714775981   -4.2472563977   -0.6801335640
H        4.5861321985   -3.0051179880    0.0628351445
H        4.4737766169   -1.0805691302   -3.1797936766
30   

C       -1.4217014614    0.5210847067    0.6746720675
C       -0.3375542525    1.0808586891    1.3466319154
C       -1.2193756306   -0.5920341057   -0.1360186902
C        5.9660621831    1.3279648929   -0.2614576229
C        0.9455428988    0.5403426082    1.1948234301
C        0.0635577795   -1.1291732140   -0.2800093243
C        5.5291755658    0.5499392424   -1.3285142941
C        5.3534928666    1.1864133562    0.9798214273
C        1.1951930337   -0.5529891977    0.3490428314
C        3.7675022691   -0.4052246380    0.0524995867
C        4.4632336576   -0.3402578739   -1.1800724656
C        4.2759060237    0.3139949927    1.1536393495
C        2.5225424563   -1.2307163947    0.1990942365
C        4.0692738743   -2.5451573177   -2.0469971941
C        3.7441022674   -3.1279405413   -0.6666578166
N        2.5158800584   -2.5075083962   -0.1252783266
N        4.1746789255   -1.1875061563   -2.2509218085
O        4.2506124077   -3.2689660534   -3.0136510282
F        3.7712545778    0.1448376172    2.3973357594
H       -2.4143376963    0.9424895391    0.7871468244
H       -0.4887715947    1.9395423963    1.9909077244
H       -2.0557415085   -1.0459293821   -0.6554908877
H        6.7982109884    2.0125237066   -0.3891806413
H        1.7366094050    1.0271565590    1.7429312160
H        0.1759694393   -2.0026720155   -0.9137473487
H        6.0459619563    0.6196784701   -2.2787894622
H        5.7174702479    1.7507441097    1.8300871373
H        3.5899295122   -4.2052421111   -0.7737306822
H        4.5916924770   -2.9775473781    0.0082002201
H        4.5092894618   -0.9676133008   -3.1800176315
30   

C       -1.4094833987    0.5668549591    0.6994810868
C       -0.2725623416    1.2351332501    1.1485664254
C       -1.2713843087   -0.6671493965    0.0700063363
C        5.9810717183    1.3079879619   -0.1563254952
C        0.9979020472    0.6771238559    0.9595581623
C       -0.0009047317   -1.2218698661   -0.1133695905
C        5.5769714304    0.5538723223   -1.2536484086
C        5.3149222988    1.1577224363    1.0562661176
C        1.1767213221   -0.5509647835    0.3009932529
C        3.7504551548   -0.3999427001    0.0392127777
C        4.4947039863   -0.3245498254   -1.1629222555
C        4.2188643586    0.2990006028    1.1707710195
C        2.5016625607   -1.2251632483    0.1332735185
C        4.1054738129   -2.5097699602   -2.0805723086
C        3.7450866050   -3.1139430943   -0.7174946551
N        2.5059595766   -2.5022976943   -0.1898201398
N        4.2353322747   -1.1504037759   -2.2572454970
O        4.3027745001   -3.2183456158   -3.0553499206
F        3.6413079751    0.1342113494    2.3840322109
H       -2.3928735973    1.0008041972    0.8416182158
H       -0.3725770147    2.1936810615    1.6450276447
H       -2.1484374293   -1.2014347301   -0.2774267927
H        6.8270853613    1.9824693287   -0.2386321284
H        1.8339242326    1.2584602866    1.3186476966
H        0.0590186711   -2.1892356500   -0.6008479356
H        6.1322973456    0.6322680123   -2.1812441945
H        5.6484149788    1.7061970146    1.9291704698
H        3.5923471591   -4.1890081641   -0.8466996944
H        4.5774478971   -2.9773908729   -0.0211429393
H        4.5995157760   -0.9174090572   -3.1719673649
30   

C       -1.3878719971    0.6196949171    0.7054555486
C       -0.2211814588    1.3479665784    0.9313729945
C       -1.2970360532   -0.6975988501    0.2621686433
C        5.9860255019    1.2675198496   -0.0588715887
C        1.0321794345    0.7632588111    0.7118254896
C       -0.0438476029   -1.2793228977    0.0457624173
C        5.6279001061    0.5228721880   -1.1786728079
C        5.2545175243    1.1260083422    1.1164298996
C        1.1572832009   -0.5583686788    0.2527167738
C        3.7284524726   -0.4144806634    0.0166424526
C        4.5312661233   -0.3420893367   -1.1469524026
C        4.1424759988    0.2825586814    1.1711579176
C        2.4754256581   -1.2336682763    0.0526186938
C        4.1432658974   -2.5101211838   -2.1099174577
C        3.7289864333   -3.1273995237   -0.7680525236
N        2.4808973310   -2.5116272306   -0.2659978136
N        4.3098637192   -1.1519838970   -2.2611282653
O        4.3607644919   -3.2080636537   -3.0880360546
F        3.4834949876    0.1429208297    2.3455267931
H       -2.3581430059    1.0735700252    0.8732390026
H       -0.2851608013    2.3740490529    1.2753767558
H       -2.1974797861   -1.2750864533    0.0858384069
H        6.8438985486    1.9309998555   -0.0951155321
H        1.8935624544    1.3928489591    0.8847431874
H       -0.0169005780   -2.3097695934   -0.2924973745
H        6.2295391642    0.5989733293   -2.0771196029
H        5.5459565202    1.6719205766    2.0058947034
H        3.5691462204   -4.1987171200   -0.9180827814
H        4.5403103085   -3.0111910062   -0.0438169593
H        4.7142012026   -0.9130519302   -3.1573267950
30   

C       -1.3681425368    0.6578136319    0.7137877878
C       -0.1972948901    1.4151022871    0.7231803793
C       -1.2987944572   -0.7093483658    0.4524142231
C        5.9786382394    1.2252823604    0.0258443562
C        1.0397534285    0.8075293991    0.4757963760
C       -0.0618730887   -1.3138959402    0.2060929329
C        5.6712073361    0.4820794378   -1.1099444688
C        5.1823030368    1.0988984254    1.1597781994
C        1.1405478513   -0.5688355882    0.2159807932
C        3.7055330177   -0.4373717280   -0.0122069439
C        4.5651742754   -0.3713417434   -1.1348449410
C        4.0597330996    0.2680950526    1.1580641548
C        2.4475223083   -1.2448981690   -0.0352086912
C        4.1717787727   -2.5200218582   -2.1466658646
C        3.6995840223   -3.1495444196   -0.8302190146
N        2.4473032067   -2.5229912308   -0.3519517108
N        4.3830146913   -1.1655287127   -2.2672452219
O        4.4050172688   -3.2063715690   -3.1293130222
F        3.3292296275    0.1537454022    2.2919284373
H       -2.3259161533    1.1286799828    0.9049087577
H       -0.2461582179    2.4803870523    0.9181828232
H       -2.2032682149   -1.3069613123    0.4403747326
H        6.8444262229    1.8793708805    0.0336059465
H        1.9089610769    1.4521902194    0.4697192492
H       -0.0458445399   -2.3807362448    0.0095849810
H        6.3181872041    0.5525164587   -1.9767877981
H        5.4290021186    1.6483281464    2.0605752808
H        3.5264594251   -4.2151744138   -1.0041680796
H        4.4892047013   -3.0610489983   -0.0786974001
H        4.8284806326   -0.9221515809   -3.1425675601
30   

C       -1.3555631367    0.6784611147    0.7197686971
C       -0.2069196650    1.4451660278    0.5217395687
C       -1.2772170042   -0.7114672022    0.6383523262
C        5.9638846935    1.1932179136    0.1008136750
C        1.0184729035    0.8235883441    0.2530448900
C       -0.0517487594   -1.3297024360    0.3688610657
C        5.7044728275    0.4498575219   -1.0467048925
C        5.1101660411    1.0813730250    1.1934645759
C        1.1291328790   -0.5746078033    0.1911146548
C        3.6845206585   -0.4559019296   -0.0397823521
C        4.5934589358   -0.3941330755   -1.1234201312
C        3.9815009889    0.2608426309    1.1404554969
C        2.4217998663   -1.2480046602   -0.1205837588
C        4.1898316023   -2.5189980593   -2.1901854086
C        3.6655069815   -3.1635708704   -0.9016185536
N        2.4131684627   -2.5253442662   -0.4388930996
N        4.4470576217   -1.1702305473   -2.2734864838
O        4.4316855344   -3.1898695475   -3.1813607160
F        3.1926490441    0.1668539648    2.2363294135
H       -2.3045198999    1.1594259104    0.9288310714
H       -0.2650108780    2.5265686122    0.5706908556
H       -2.1659677201   -1.3153291940    0.7825600738
H        6.8340992097    1.8396607254    0.1488938224
H        1.8773958811    1.4609906117    0.0801935686
H       -0.0228041095   -2.4125501081    0.3078478956
H        6.3908828892    0.5158258076   -1.8830286509
H        5.3152481053    1.6350571956    2.1020727234
H        3.4769308403   -4.2216718420   -1.1033279047
H        4.4357809693   -3.1074843737   -0.1273673639
H        4.9285422198   -0.9205728441   -3.1277735352
30   

C       -1.3563218143    0.6838208927    0.7289532903
C       -0.2535342944    1.4385520031    0.3257336034
C       -1.2401547434   -0.7023861519    0.8381947054
C        5.9505161965    1.1478123745    0.1916497163
C        0.9659650511    0.8097103227    0.0480803237
C       -0.0204115086   -1.3274824479    0.5578649229
C        5.7317183277    0.4017844336   -0.9623533497
C        5.0468266797    1.0555880286    1.2448380490
C        1.1181926578   -0.5779453543    0.1932471059
C        3.6627337429   -0.4808333631   -0.0367872791
C        4.6149892109   -0.4294548572   -1.0835468889
C        3.9114173982    0.2486499121    1.1477385257
C        2.3944551000   -1.2527502402   -0.1713677642
C        4.1966802460   -2.5322720775   -2.1961487089
C        3.6234902909   -3.1851252510   -0.9332978896
N        2.3740862794   -2.5306376199   -0.4853595687
N        4.4992113166   -1.1917735010   -2.2463565520
O        4.4435870600   -3.1911503261   -3.1940558561
F        3.0739069683    0.1788786662    2.2087162879
H       -2.3008132580    1.1698608180    0.9462845623
H       -0.3437209232    2.5138151923    0.2215736295
H       -2.0955776333   -1.2977190644    1.1367045552
H        6.8254779607    1.7842275690    0.2745182396
H        1.7964133298    1.4215291532   -0.2861367361
H        0.0430407843   -2.4076782361    0.6374901655
H        6.4525334491    0.4585469265   -1.7698935279
H        5.2167803282    1.6149590824    2.1572039111
H        3.4175895394   -4.2351685138   -1.1588355275
H        4.3753796194   -3.1601889255   -0.1397046702
H        5.0135631248   -0.9406894662   -3.0808938560
30   

C       -1.3571971896    0.6717313870    0.7187424519
C       -0.3284015689    1.3996729681    0.1173189188
C       -1.1677295490   -0.6805774749    1.0090397197
C        5.9659449147    1.1040551265    0.2703841287
C        0.8932033564    0.7807096556   -0.1727417035
C        0.0539504138   -1.2954249032    0.7142655727
C        5.7755922829    0.3750648937   -0.8991541584
C        5.0224499584    1.0182520170    1.2882156298
C        1.1242359914   -0.5607883036    0.1655193635
C        3.6625071069   -0.4870004501   -0.0558214265
C        4.6500450704   -0.4353771719   -1.0697672268
C        3.8775442319    0.2323448340    1.1423709480
C        2.3878584588   -1.2329274708   -0.2481526963
C        4.2145252529   -2.5012520119   -2.2482371379
C        3.5986993396   -3.1743041109   -1.0167156699
N        2.3543607112   -2.5075751920   -0.5724239373
N        4.5566235769   -1.1697082958   -2.2524819528
O        4.4646461239   -3.1374254348   -3.2599411812
F        3.0025552179    0.1722534972    2.1732303116
H       -2.3030779988    1.1499834967    0.9469886972
H       -0.4787046655    2.4440571644   -0.1313461544
H       -1.9683888600   -1.2578470609    1.4572933350
H        6.8478297688    1.7244901853    0.3918508410
H        1.6709852677    1.3576248005   -0.6612075491
H        0.1782298043   -2.3520997704    0.9267587065
H        6.5243146838    0.4307926143   -1.6809372585
H        5.1676066982    1.5670109290    2.2112353910
H        3.3752542995   -4.2128581871   -1.2762593135
H        4.3341892435   -3.1886730213   -0.2077461770
H        5.0996442131   -0.9094712340   -3.0658280835
30   

C       -1.3875405517    0.6454395163    0.7206144240
C       -0.4581184051    1.3108385804   -0.0823819698
C       -1.0939547998   -0.6312031475    1.2046735926
C        5.9806293696    1.0327373982    0.3739443476
C        0.7711076543    0.7097294566   -0.3780236384
C        0.1347232604   -1.2283245164    0.9023371623
C        5.8049936941    0.3280648808   -0.8124924011
C        5.0083467887    0.9522910601    1.3645485343
C        1.1110176950   -0.5398070123    0.1575497092
C        3.6531758908   -0.5034982204   -0.0379993061
C        4.6668116578   -0.4540142054   -1.0261421884
C        3.8504765855    0.1948583186    1.1760059420
C        2.3687059663   -1.2163693691   -0.2797109710
C        4.2056905533   -2.4799421280   -2.2650868800
C        3.5522039110   -3.1688157918   -1.0620166179
N        2.3160577773   -2.4858782963   -0.6191197137
N        4.5849305800   -1.1591844643   -2.2273386521
O        4.4549016117   -3.0949565730   -3.2899874152
F        2.9483505401    0.1412257585    2.1834583103
H       -2.3388356296    1.1103112657    0.9539248961
H       -0.6924061063    2.2904661465   -0.4831498508
H       -1.8198933078   -1.1643965528    1.8079077798
H        6.8721570515    1.6315147194    0.5289470434
H        1.4731160613    1.2271977062   -1.0228960981
H        0.3427882723   -2.2312652445    1.2598151074
H        6.5742459561    0.3816533582   -1.5742095215
H        5.1403045679    1.4838114976    2.2995394327
H        3.3091652997   -4.1946862582   -1.3525871599
H        4.2732758988   -3.2218572141   -0.2418390920
H        5.1516170061   -0.8925361300   -3.0222852605
30   

C       -1.4134990494    0.6593190867    0.7267851240
C       -0.6029836766    1.1964605575   -0.2770432951
C       -0.9989020907   -0.4847428270    1.4133660188
C        5.9949384928    0.9675822909    0.5040952080
C        0.6306379848    0.6048018914   -0.5737384607
C        0.2330906132   -1.0742985319    1.1093170250
C        5.8216134721    0.3096983716   -0.7091161054
C        5.0084945845    0.8700137229    1.4789167414
C        1.0910485077   -0.4983622295    0.1556522339
C        3.6456737061   -0.5101658929    0.0090855299
C        4.6722631023   -0.4428662784   -0.9648592146
C        3.8392853985    0.1419515306    1.2488140989
C        2.3503728990   -1.1873814446   -0.2767086218
C        4.1832164121   -2.4067553535   -2.2927877302
C        3.4968197391   -3.1301283819   -1.1290844745
N        2.2704091234   -2.4368073177   -0.6759647511
N        4.5918597311   -1.0979731485   -2.1943821023
O        4.4313258786   -2.9830007042   -3.3402363692
F        2.9233641234    0.0709156707    2.2421891638
H       -2.3676986141    1.1179727148    0.9605440879
H       -0.9335920668    2.0671484836   -0.8318440938
H       -1.6340839962   -0.9217812454    2.1753843095
H        6.8948145351    1.5442570038    0.6912425992
H        1.2405035926    1.0142643264   -1.3717264441
H        0.5382093061   -1.9791618154    1.6237828283
H        6.6007155339    0.3777668711   -1.4595630158
H        5.1377265626    1.3659118145    2.4336274396
H        3.2344462908   -4.1368325325   -1.4661636354
H        4.2042932212   -3.2341689644   -0.3020071621
H        5.1739157499   -0.8108165446   -2.9708714899
30   

C       -1.3834153470    0.6942895705    0.7196181781
C       -0.7169782433    0.9843871169   -0.4747827458
C       -0.8354579539   -0.2292073142    1.6147905592
C        6.0139999220    0.8805844493    0.6279181097
C        0.5047877718    0.3655113329   -0.7641132626
C        0.3846465268   -0.8489066311    1.3219745294
C        5.8108993140    0.3363380270   -0.6347354007
C        5.0554601334    0.6849711490    1.6143756017
C        1.0873620597   -0.5235980986    0.1491803092
C        3.6572194063   -0.5665734835    0.0614889492
C        4.6591454410   -0.3978788185   -0.9301837471
C        3.8848162606   -0.0289591727    1.3498300898
C        2.3549684202   -1.2225114471   -0.2563019269
C        4.1651668379   -2.2229193444   -2.4454795839
C        3.4610354340   -3.0513548641   -1.3694088775
N        2.2438473847   -2.3793648040   -0.8672017813
N        4.5582829444   -0.9260282922   -2.2188639267
O        4.4292978087   -2.6961137695   -3.5396329685
F        3.0035970578   -0.1979420884    2.3601475242
H       -2.3293855633    1.1738248159    0.9448198160
H       -1.1499595890    1.6837449513   -1.1809439991
H       -1.3591125232   -0.4725308447    2.5322525365
H        6.9150388236    1.4456400181    0.8428315886
H        1.0059463346    0.5802504434   -1.7018545727
H        0.7903452429   -1.5855484133    2.0066203934
H        6.5688315833    0.4811377706   -1.3959452250
H        5.2081772457    1.0927915521    2.6065440070
H        3.1851695701   -4.0143681081   -1.8080437182
H        4.1580483447   -3.2481634812   -0.5501333375
H        5.1336998602   -0.5617096991   -2.9672998235
30   

C       -1.2968744361    0.8612713155    0.6409581601
C       -0.7936308036    0.7745686923   -0.6586036555
C       -0.6155063705    0.2404380585    1.6901709265
C        6.0410253629    0.8033562929    0.7096261092
C        0.3906604434    0.0718642845   -0.9058593123
C        0.5704028172   -0.4612408376    1.4431702475
C        5.7340784512    0.4883325393   -0.6071559965
C        5.1988933048    0.3674014215    1.7235377377
C        1.0926369648   -0.5527874913    0.1381022851
C        3.6785600564   -0.6269425460    0.0971031487
C        4.5839026258   -0.2363603737   -0.9295044799
C        4.0353941828   -0.3507682471    1.4376537564
C        2.3643464633   -1.2594825517   -0.2413071938
C        4.1082878641   -1.8414938009   -2.6665689271
C        3.4589207358   -2.8359327086   -1.7056292634
N        2.2471101137   -2.2513760722   -1.0959740252
N        4.4064259264   -0.5578144485   -2.2771994654
O        4.3834071019   -2.1533026685   -3.8146287483
F        3.3046796561   -0.7947225273    2.4794247632
H       -2.2175987324    1.4005936953    0.8331992184
H       -1.3217830708    1.2488488780   -1.4779827304
H       -1.0131739392    0.2904812362    2.6974761136
H        6.9386566929    1.3662077443    0.9437461148
H        0.7692756298    0.0103107382   -1.9209533542
H        1.0328009423   -0.9711799845    2.2756230078
H        6.4128158999    0.8012130750   -1.3922486848
H        5.4432598712    0.5813909813    2.7571906931
H        3.1856040994   -3.7326580859   -2.2687029002
H        4.1804836737   -3.1297581811   -0.9378830639
H        4.9281458040   -0.0615132961   -2.9878934898
30   

C       -1.2532120194    0.9574750393    0.4770907139
C       -0.9208995056    0.4718098484   -0.7875575967
C       -0.4079848545    0.7016703877    1.5572729326
C        6.0077247823    0.6852042639    0.8505043588
C        0.2400330362   -0.2886128289   -0.9646328797
C        0.7571349926   -0.0534680365    1.3784496940
C        5.6615304380    0.5300680765   -0.4872295210
C        5.2233280541    0.0849417332    1.8298482181
C        1.0719711900   -0.6146682061    0.1226275039
C        3.6612515128   -0.7072596182    0.1432063242
C        4.5202142063   -0.1850683192   -0.8570578514
C        4.0694899111   -0.6265320458    1.4907331450
C        2.3452140741   -1.3322541737   -0.2156694625
C        4.0684549858   -1.6766946609   -2.6875407073
C        3.4960083525   -2.7695798252   -1.7792044135
N        2.2650709957   -2.2891286198   -1.1166657425
N        4.3141279096   -0.4054612796   -2.2201212273
O        4.3244251067   -1.8973568983   -3.8609456625
F        3.3959097798   -1.2687770660    2.4708828131
H       -2.1569115661    1.5399774259    0.6171225686
H       -1.5605899158    0.6857085999   -1.6363118384
H       -0.6531532993    1.0918649300    2.5385778651
H        6.8987165199    1.2410731925    1.1234906731
H        0.4814924441   -0.6348812739   -1.9643736054
H        1.3775198474   -0.2045504333    2.2472295985
H        6.3055718622    0.9513598971   -1.2505473792
H        5.5099763728    0.1584744905    2.8720858743
H        3.2605658793   -3.6428215023   -2.3939179344
H        4.2473060486   -3.0712233352   -1.0436280195
H        4.7944985309    0.1632085106   -2.9052286518
30   

C       -1.3059814129    0.9076879310    0.4422519926
C       -1.0920293109    0.2087590587   -0.7454131608
C       -0.3251560454    0.8961445146    1.4337661921
C        6.0080893853    0.6049753483    0.9328260762
C        0.0869787650   -0.5221218164   -0.9290982367
C        0.8569045997    0.1699735635    1.2481743338
C        5.6857675150    0.4987161081   -0.4164239535
C        5.1898862409   -0.0051959867    1.8788246709
C        1.0590044750   -0.6080423121    0.0866607032
C        3.6489236996   -0.7110058632    0.1371393470
C        4.5376086267   -0.1807728747   -0.8298345535
C        4.0269231770   -0.6777038525    1.4947531154
C        2.3335954269   -1.3137094197   -0.2598973565
C        4.0944652548   -1.6223353939   -2.6998248733
C        3.5143652641   -2.7347566362   -1.8180993325
N        2.2727588488   -2.2745619551   -1.1595583774
N        4.3520813397   -0.3653374105   -2.2005756297
O        4.3541957649   -1.8172589464   -3.8769904935
F        3.3017181636   -1.3196692161    2.4400346149
H       -2.2221009108    1.4693044837    0.5868899172
H       -1.8380291945    0.2348542996   -1.5316549838
H       -0.4754437962    1.4589138590    2.3481110864
H        6.9057765855    1.1314283720    1.2400962467
H        0.2227988301   -1.0316670258   -1.8773468219
H        1.5936560073    0.2306279531    2.0344688866
H        6.3540991721    0.9277743673   -1.1541195598
H        5.4554668735    0.0316675424    2.9286011344
H        3.2905991314   -3.5968417039   -2.4525740086
H        4.2583085913   -3.0480674732   -1.0800086150
H        4.8450507725    0.2159011792   -2.8659467607
30   

C       -1.3603949330    0.8244996848    0.4933829822
C       -1.2360455470   -0.0340747495   -0.5983059631
C       -0.2742814540    1.0135224046    1.3472178265
C        6.0104316318    0.5349459764    1.0134039769
C       -0.0368606442   -0.7195874896   -0.8227335962
C        0.9268270033    0.3315513766    1.1219632541
C        5.7279555752    0.4529371119   -0.3467299522
C        5.1422556982   -0.0555949415    1.9268149976
C        1.0542852004   -0.5929591113    0.0599327243
C        3.6412978568   -0.7031096428    0.1279889030
C        4.5740891660   -0.1879025396   -0.8042216211
C        3.9719709774   -0.6868605591    1.4984593422
C        2.3300522376   -1.2797451729   -0.3125517803
C        4.1438545683   -1.5890667534   -2.7076802345
C        3.5294488187   -2.7050551483   -1.8536578129
N        2.2798059976   -2.2424304566   -1.2113017009
N        4.4228595484   -0.3478347657   -2.1818933232
O        4.4213223084   -1.7700355084   -3.8830300267
F        3.1811754717   -1.2928022107    2.4151991255
H       -2.2908453849    1.3530042225    0.6681776081
H       -2.0686852075   -0.1681169442   -1.2795675256
H       -0.3575837269    1.6992226684    2.1828039079
H        6.9135662420    1.0300536250    1.3549525385
H        0.0172465986   -1.3604145839   -1.6964241281
H        1.7448369501    0.5522584920    1.7922195815
H        6.4315762114    0.8702062183   -1.0579035944
H        5.3718351531   -0.0330228783    2.9854998579
H        3.3088269658   -3.5549725766   -2.5053914894
H        4.2542768554   -3.0388527996   -1.1056645149
H        4.9440290343    0.2330102134   -2.8258364717
30   

C       -1.3914560855    0.7449020721    0.5825849335
C       -1.3361410609   -0.2421264624   -0.4009356111
C       -0.2299247992    1.0998721312    1.2675187298
C        6.0039460229    0.4592994657    1.0756364754
C       -0.1262386659   -0.8839998042   -0.6885068288
C        0.9810280745    0.4602658395    0.9802162865
C        5.7685282237    0.3949712052   -0.2944794727
C        5.0823918901   -0.1038260155    1.9530916101
C        1.0523946150   -0.5748946119    0.0188859514
C        3.6319643123   -0.6998571357    0.0949870440
C        4.6122391086   -0.2054841591   -0.7988626964
C        3.9087017740   -0.6935312146    1.4782060517
C        2.3251406760   -1.2411842249   -0.3933222778
C        4.1910481806   -1.5577727448   -2.7419559177
C        3.5278437231   -2.6732244476   -1.9247928600
N        2.2747925234   -2.1983480076   -1.2976485559
N        4.5006979492   -0.3389414096   -2.1829872449
O        4.4891779309   -1.7224164189   -3.9146271722
F        3.0549497169   -1.2588410370    2.3637977244
H       -2.3293971475    1.2415263060    0.8044591334
H       -2.2319795382   -0.5111321083   -0.9490772744
H       -0.2631864284    1.8814581414    2.0180724255
H        6.9094861556    0.9226057082    1.4535344435
H       -0.1310916951   -1.6349028738   -1.4714085403
H        1.8560402591    0.8059503800    1.5134211909
H        6.5099265456    0.7956271295   -0.9762183937
H        5.2704950414   -0.0899807672    3.0201165108
H        3.3025257802   -3.5040900639   -2.5990925934
H        4.2275572221   -3.0401919295   -1.1685416137
H        5.0570369519    0.2373834822   -2.8011246315
30   

C       -1.3953164917    0.6777363213    0.6871901512
C       -1.3812365246   -0.4177916159   -0.1763483672
C       -0.1927811742    1.1761949132    1.1881207011
C        5.9930192421    0.3837968297    1.1441602448
C       -0.1686602618   -1.0188420997   -0.5330618207
C        1.0202703042    0.5763244821    0.8326882726
C        5.8116149875    0.3266848912   -0.2344512509
C        5.0154836617   -0.1418872344    1.9830429857
C        1.0564389666   -0.5485410046   -0.0233314457
C        3.6261316705   -0.6973844874    0.0657491627
C        4.6566864338   -0.2331161308   -0.7868442136
C        3.8423440824   -0.6906574411    1.4606854108
C        2.3243245580   -1.1945799769   -0.4736934371
C        4.2450589769   -1.5386958083   -2.7677196141
C        3.5223453839   -2.6450017788   -1.9901228574
N        2.2686865857   -2.1474116353   -1.3817349814
N        4.5909901870   -0.3459506112   -2.1757420162
O        4.5665194501   -1.6910991273   -3.9358441817
F        2.9299217190   -1.2134518820    2.3130066634
H       -2.3352295101    1.1438994599    0.9607461415
H       -2.3119187740   -0.8039971819   -0.5763354248
H       -0.1973062320    2.0365604457    1.8476875238
H        6.8979357134    0.8153459693    1.5593266020
H       -0.2035276707   -1.8636603832   -1.2127353441
H        1.9283530972    1.0208240539    1.2198408475
H        6.5929373454    0.7032657295   -0.8845898984
H        5.1577463401   -0.1295688297    3.0571849453
H        3.2885107116   -3.4546411446   -2.6869810890
H        4.1904376716   -3.0499683973   -1.2248109277
H        5.1876291532    0.2188446136   -2.7664078316
