40

C      9.67483   -1.88579   -0.88633
C      7.96300   -1.92223    0.71638
C     10.73705   -1.55978   -1.89401
C      7.55903   -2.05647    8.47963
C     15.52488   -3.50671   -1.23133
C      6.76523   -1.77799    7.19870
C     14.14504   -3.64123   -1.88481
C      7.57754   -2.04401    5.92550
C     13.77358   -2.42412   -2.73876
C      6.78346   -1.75497    4.64436
C     12.40373   -2.54085   -3.41931
C      7.61480   -2.01873    3.39182
N      9.36465   -3.10455   -0.51764
N      8.35978   -3.12770    0.41232
N     11.29699   -2.64910   -2.47106
O     11.02778   -0.38825   -2.14107
O      6.48503   -0.05983    1.89365
S      8.76278   -0.62146   -0.11619
S      6.62401   -1.56941    1.89468
H      7.88716   -3.10141    8.52292
H      8.45349   -1.42548    8.53527
H      6.95597   -1.85910    9.37207
H     15.56641   -2.62750   -0.57846
H     15.76641   -4.38570   -0.62447
H     16.31108   -3.39536   -1.98683
H      6.42399   -0.73492    7.19669
H      5.85895   -2.39724    7.18569
H     14.12145   -4.54512   -2.50915
H     13.38783   -3.78383   -1.10364
H      7.91754   -3.08841    5.92124
H      8.48410   -1.42434    5.93750
H     13.78178   -1.51648   -2.12447
H     14.52783   -2.27888   -3.52323
H      6.45561   -0.70971    4.64248
H      5.87863   -2.37563    4.62487
H     12.36925   -3.42365   -4.06605
H     12.21850   -1.66066   -4.03945
H      7.88922   -3.07199    3.27619
H      8.51558   -1.39787    3.36220
H     10.99327   -3.55570   -2.13416
