32

C      1.73097    2.70068   -1.23262
C      0.67711    2.43525   -2.12456
C      1.98183    1.81349   -0.19345
C     -0.12250    1.30552   -1.96970
C      1.19470    0.66010   -0.02524
C      0.12978    0.41542   -0.91578
C      1.50179   -0.31646    1.04246
C     -3.99276   -0.81894    1.46185
C      0.69199   -1.60036    0.97809
C     -0.73331   -1.37937    0.46253
C     -5.30139   -0.37839    0.82844
C     -1.43198   -2.69745    0.15841
C     -1.53684   -0.52247    1.46326
N     -2.86768   -0.19260    0.99096
O      2.36938   -0.13522    1.88912
O     -3.95452   -1.67050    2.34891
O     -0.69180   -0.66918   -0.81681
H      2.34434    3.58777   -1.36004
H      0.47545    3.12074   -2.94381
H      2.79381    1.97661    0.50924
H     -0.94268    1.09372   -2.64967
H      1.21664   -2.27802    0.29215
H      0.68395   -2.07072    1.96422
H     -5.83252   -1.26353    0.46969
H     -5.92274    0.08729    1.59854
H     -5.17530    0.32632    0.00152
H     -2.42702   -2.51803   -0.25414
H     -1.54424   -3.28507    1.07285
H     -0.85182   -3.27030   -0.57019
H     -0.99659    0.40360    1.68489
H     -1.65199   -1.07635    2.39673
H     -2.94657    0.43277    0.20085
