32

C      0.64544   -2.07529    1.45102
C     -0.74523   -2.25219    1.33811
C      1.23628   -0.95447    0.88241
C     -1.53451   -1.31500    0.67683
C      0.46018   -0.00108    0.19816
C     -0.93516   -0.18270    0.10783
C      1.09490    1.15563   -0.46525
C     -2.62894    5.06976   -1.69478
C      0.15526    1.98354   -1.32745
C     -1.26056    2.05046   -0.74545
C     -2.22181    6.40729   -2.28928
C     -1.30564    2.82193    0.57496
C     -2.26391    2.61696   -1.76694
N     -1.95996    3.97465   -2.18643
O      2.29042    1.41363   -0.37808
O     -3.48878    4.98078   -0.82190
O     -1.75835    0.69733   -0.52967
H      1.24901   -2.81058    1.97505
H     -1.21691   -3.12646    1.77964
H      2.30798   -0.78716    0.93823
H     -2.61100   -1.43331    0.59768
H      0.57888    2.98227   -1.45091
H      0.12149    1.50168   -2.31469
H     -3.12121    6.92559   -2.63028
H     -1.77064    7.01723   -1.50144
H     -1.51587    6.32587   -3.12079
H     -2.32286    2.82814    0.97149
H     -0.99765    3.85802    0.41460
H     -0.63592    2.37886    1.31727
H     -3.26004    2.62082   -1.32095
H     -2.27970    1.95914   -2.64190
H     -1.29846    4.11166   -2.93763
