40

C      8.91188   -1.25452   -1.34277
C      7.41827   -0.80803    0.43315
C      9.95684   -1.30527   -2.43162
C      7.38186   -1.95854    8.12503
C      8.61113   -0.60426   -7.36565
C      6.72844   -1.17298    6.98291
C      9.13979    0.01008   -6.06472
C      7.28800   -1.54935    5.60559
C     10.41948   -0.67122   -5.56696
C      6.63503   -0.75779    4.46423
C     10.99397   -0.05464   -4.28543
C      7.21120   -1.14631    3.10524
N      8.14274   -2.27595   -1.06668
N      7.27105   -2.00912   -0.04284
N     10.08813   -0.14184   -3.13723
O     10.63472   -2.30707   -2.61854
O      6.95102    1.30508    1.96488
S      8.64483    0.15757   -0.33799
S      6.42905   -0.10837    1.78912
H      7.22798   -3.03681    8.00256
H      8.46263   -1.77984    8.16022
H      6.96454   -1.67026    9.09552
H      8.38365   -1.66777   -7.23284
H      7.69543   -0.10503   -7.69935
H      9.35043   -0.52091   -8.17038
H      6.87011   -0.09719    7.14774
H      5.64424   -1.34458    6.99209
H      9.33061    1.08174   -6.21585
H      8.36121   -0.06264   -5.29435
H      7.14656   -2.62515    5.43598
H      8.37216   -1.37518    5.59406
H     10.23497   -1.73651   -5.39064
H     11.19350   -0.61018   -6.34306
H      6.78759    0.31504    4.62527
H      5.55166   -0.93272    4.46960
H     11.22649    1.00474   -4.43617
H     11.91744   -0.56587   -4.00547
H      7.00491   -2.18725    2.83704
H      8.28777   -0.95839    3.04778
H      9.35508    0.55111   -3.05690
