34

C      0.27817    0.82710   -0.88746
C     -1.11189    0.73438   -1.01030
C      0.28753    2.89109   -2.17865
C      0.98557    1.89716   -1.46649
C     -1.78753    1.73034   -1.71477
C     -1.09440    2.80366   -2.29557
C      2.47423    2.02319   -1.35138
C     -3.91158   -0.42844   -2.82646
C     -2.05399    3.73345   -3.01145
C     -3.43747    3.29797   -2.46405
C     -3.27374    1.82519   -2.01809
C      3.24051    0.97274   -0.56545
C     -5.23165   -2.34298   -3.83760
C     -4.12235   -1.30865   -4.05399
N     -3.67007    0.89485   -3.08346
O      3.06806    2.95692   -1.88158
O     -3.95405   -0.87640   -1.67956
H      0.80910    0.05936   -0.33340
H     -1.66126   -0.09421   -0.57343
H      0.85331    3.70954   -2.61477
H     -1.84334    4.78962   -2.81944
H     -1.98376    3.59110   -4.09805
H     -3.67981    3.89863   -1.58255
H     -4.25400    3.42334   -3.18065
H     -3.88819    1.57545   -1.15198
H      3.09720   -0.02264   -0.99943
H      2.89376    0.93014    0.47258
H      4.30144    1.22463   -0.58260
H     -5.02931   -2.93256   -2.94071
H     -6.20295   -1.85525   -3.70705
H     -5.30065   -3.01841   -4.69595
H     -4.32951   -0.69617   -4.93915
H     -3.16980   -1.82124   -4.23894
H     -3.48226    1.16770   -4.04028
