40

C      9.09720   -1.17167   -1.81033
C      7.58030   -1.55810   -0.03965
C      9.91490   -0.72818   -2.99949
C      7.37567   -0.31500    7.62527
C     14.33032    1.83946   -2.38917
C      6.51407   -0.63712    6.39953
C     12.81759    1.90161   -2.62845
C      7.33991   -0.79062    5.11659
C     12.38744    1.14006   -3.88703
C      6.47625   -1.10443    3.88716
C     10.88225    1.21096   -4.17318
C      7.32396   -1.24607    2.62597
N      9.36930   -2.26615   -1.14726
N      8.48401   -2.48931   -0.12517
N     10.05567    0.62694   -3.11374
O     10.37113   -1.53731   -3.79616
O      5.47562   -0.25019    0.90156
S      7.69441   -0.29316   -1.22976
S      6.22138   -1.54342    1.17023
H      8.11126   -1.10607    7.81097
H      7.92544    0.62303    7.48663
H      6.76240   -0.21176    8.52654
H     14.88105    2.27548   -3.23038
H     14.61434    2.38625   -1.48389
H     14.66658    0.80303   -2.27425
H      5.76798    0.15479    6.25547
H      5.94981   -1.56130    6.57942
H     12.30060    1.48614   -1.75372
H     12.50134    2.95103   -2.70904
H      8.08514   -1.58527    5.25568
H      7.90480    0.13378    4.93618
H     12.91271    1.54776   -4.76054
H     12.67930    0.08730   -3.80832
H      5.74176   -0.30520    3.73890
H      5.91343   -2.03039    4.06020
H     10.65163    0.67269   -5.09507
H     10.56070    2.24998   -4.29956
H      8.01160   -2.09654    2.66807
H      7.88361   -0.33181    2.40548
H      9.83135    1.20282   -2.31273
