19   

C        2.1670136460   -0.4885450194   -0.0248290381
C        0.8667346868   -0.3835903321    0.4526153368
C        3.1485067827   -1.0993539604    0.7575350671
C        0.5593290751   -0.8885956162    1.7143608854
C        3.8455313635   -3.0606837968    3.9269558385
C        6.1165535491   -2.6573391356    3.1789162465
C        2.8595678527   -1.6261686417    2.0394869149
C        1.5354982797   -1.5023338787    2.5111865296
C        3.9436541638   -2.2531196598    2.8176715337
N        5.2559536655   -2.0428233336    2.4045458545
O        1.1466514743   -1.9387537996    3.7453341512
S        5.4111197171   -3.5708184069    4.4988671116
H        2.4214719924   -0.0965154374   -1.0030176173
H        0.1007713454    0.0908996826   -0.1511295172
H        4.1511204053   -1.1633231736    0.3488858548
H       -0.4569956543   -0.7933608966    2.0757299751
H        2.9212882924   -3.3667614400    4.3938447302
H        7.1866665493   -2.6074578157    3.0149790921
H        0.2151393264   -1.7095227993    3.9017906792
19   

C        2.1435889363   -0.5681230930   -0.0585202747
C        0.8650159457   -0.3924083619    0.4603202675
C        3.1269634084   -1.1929309767    0.7111480371
C        0.5807644943   -0.8386838560    1.7508688398
C        3.8234142191   -3.2201148228    3.7912725173
C        6.1011834784   -2.5353378221    3.3018531454
C        2.8553042259   -1.6653321477    2.0135402712
C        1.5598704631   -1.4652098420    2.5330394600
C        3.9427949656   -2.2888855373    2.7904260251
N        5.2532108141   -1.9092502586    2.5217701331
O        1.2180335958   -1.8460220578    3.8001118760
S        5.3794295774   -3.6590931887    4.4425738017
H        2.3792515428   -0.2180023079   -1.0570900579
H        0.0985678522    0.0939167665   -0.1332969993
H        4.1182577516   -1.3137743331    0.2872644295
H       -0.4160765703   -0.6866836932    2.1455135804
H        2.8837124338   -3.6343884861    4.1291992867
H        7.1713030372   -2.3731061069    3.2465892123
H        0.3158423087   -1.5491281566    4.0063675234
19   

C        2.1117993907   -0.6269006045   -0.0850661646
C        0.8597471516   -0.3830857033    0.4738528292
C        3.0969971173   -1.2689344786    0.6687554808
C        0.6036276246   -0.7768485104    1.7885319660
C        3.8160945369   -3.3498643243    3.6511795391
C        6.0543156686   -2.4236832897    3.4473911082
C        2.8463203669   -1.6940259874    1.9875803346
C        1.5852664876   -1.4203775326    2.5526846005
C        3.9396097116   -2.3151981969    2.7622582456
N        5.2205586247   -1.7880727791    2.6590529346
O        1.2896816309   -1.7620540527    3.8427288931
S        5.3477313776   -3.7278056814    4.3922662214
H        2.3253992442   -0.3135749840   -1.1006690850
H        0.0927608443    0.1171933468   -0.1073353154
H        4.0740969727   -1.4396514467    0.2291139263
H       -0.3703788657   -0.5714815261    2.2147308245
H        2.8812780670   -3.8506061038    3.8648030719
H        7.1044708129   -2.1640682506    3.5130901636
H        0.4178172011   -1.4116909764    4.0907499601
19   

C        2.0836866111   -0.6758157049   -0.1004905405
C        0.8617519784   -0.3717022639    0.4973463045
C        3.0776857871   -1.3228796273    0.6380591107
C        0.6440824226   -0.7094054290    1.8353341918
C        3.8548284566   -3.4622141009    3.4858444700
C        6.0046390968   -2.3321321413    3.6158255612
C        2.8593909276   -1.6939537230    1.9760559761
C        1.6346546934   -1.3581410415    2.5827173849
C        3.9601996289   -2.3158469467    2.7465701108
N        5.1844305678   -1.6688644254    2.8359197104
O        1.3888273145   -1.6580722775    3.8933396688
S        5.3482190753   -3.8072711994    4.3157540188
H        2.2667827366   -0.4040918954   -1.1338808726
H        0.0885890582    0.1324232556   -0.0722139583
H        4.0350362867   -1.5387110446    0.1757100494
H       -0.3052750598   -0.4580954984    2.2914600447
H        2.9497076046   -4.0509736558    3.5522828450
H        7.0149307945   -1.9953981076    3.8169654952
H        0.5452618003   -1.2667287565    4.1749843456
19   

C        2.0516121075   -0.7300318748   -0.1249531013
C        0.8617460438   -0.3592452568    0.5012918635
C        3.0523838195   -1.3743170957    0.6074277688
C        0.6811951373   -0.6294900361    1.8605874994
C        3.9141954135   -3.5735411770    3.2568948361
C        5.9224152540   -2.3051726208    3.7862404488
C        2.8696401018   -1.6710326223    1.9676633929
C        1.6780546159   -1.2756505601    2.6013596980
C        3.9665434874   -2.3096999314    2.7380638445
N        5.1076812493   -1.5869788673    3.0506410465
O        1.4734553281   -1.5233365907    3.9296516513
S        5.3606427117   -3.9307749979    4.1616846092
H        2.2035491732   -0.5129634015   -1.1761739430
H        0.0837749885    0.1424140211   -0.0638867802
H        3.9844576383   -1.6451880121    0.1233709998
H       -0.2438742764   -0.3304586529    2.3373472638
H        3.0718661923   -4.2401928732    3.1301646334
H        6.8743137069   -1.9254044855    4.1386589074
H        0.6554404118   -1.0941321125    4.2301098442
19   

C        1.9971518190   -0.8307552319   -0.1428235432
C        0.8440691880   -0.3838260358    0.5031795023
C        3.0098615208   -1.4538188735    0.5916967315
C        0.7088130182   -0.5621785467    1.8830687950
C        4.0408610143   -3.6378935513    2.9839238090
C        5.8406342943   -2.3042895074    3.9369301907
C        2.8781835428   -1.6409143705    1.9766401346
C        1.7169939043   -1.1868164688    2.6268477622
C        3.9672859016   -2.2933378156    2.7492391525
N        4.9962522580   -1.5378159956    3.2890694381
O        1.5526936035   -1.3594048222    3.9724074586
S        5.4534105119   -4.0218747732    3.9305650832
H        2.1097761700   -0.6910993935   -1.2119869220
H        0.0571866745    0.1014910896   -0.0639332405
H        3.9100828141   -1.7908802721    0.0895309347
H       -0.1910604608   -0.2119715312    2.3730213078
H        3.3076144616   -4.3514361773    2.6329622696
H        6.7172322256   -1.9097085935    4.4373333453
H        0.7585971387   -0.8914308322    4.2782459207
19   

C        1.9280926380   -0.9459567177   -0.1465786709
C        0.8174029047   -0.4163465580    0.5105535544
C        2.9494916989   -1.5520710197    0.5898659132
C        0.7301068470   -0.5009194949    1.9029728566
C        4.2057612639   -3.6350099274    2.7252016402
C        5.7567987993   -2.3159967617    4.0592403514
C        2.8753465032   -1.6291669692    1.9902385441
C        1.7468023918   -1.1080356186    2.6498544149
C        3.9591757243   -2.2904790903    2.7581762694
N        4.8570645726   -1.5413047855    3.5026292095
O        1.6182996517   -1.2002380732    4.0071404015
S        5.5971794250   -4.0315710892    3.6976813805
H        2.0001784545   -0.8848309509   -1.2265785850
H        0.0239037446    0.0564068263   -0.0579589480
H        3.8136585034   -1.9577226380    0.0753240485
H       -0.1411958601   -0.0943480801    2.4009667477
H        3.6068891603   -4.3446430015    2.1704375408
H        6.5478308635   -1.9275400178    4.6900136986
H        0.8526084354   -0.6861052364    4.3103010245
19   

C        1.8594147667   -1.0479789777   -0.1418183495
C        0.7927374190   -0.4435763726    0.5219155584
C        2.8860332401   -1.6479809208    0.5918235821
C        0.7532856269   -0.4501887166    1.9184284390
C        4.3649495847   -3.5874947927    2.5343043132
C        5.6663092321   -2.3423841640    4.1705280133
C        2.8662811032   -1.6427521757    1.9977907942
C        1.7750061765   -1.0507923570    2.6642081135
C        3.9567111300   -2.2996638409    2.7525972833
N        4.7180897646   -1.5891791959    3.6682852435
O        1.6769057909   -1.0713314525    4.0270003366
S        5.7297054915   -3.9855036166    3.5432770534
H        1.8935247475   -1.0493397327   -1.2254234861
H       -0.0049169797    0.0250568272   -0.0441974213
H        3.7150050021   -2.1094117110    0.0666323857
H       -0.0872024752    0.0105832069    2.4221467473
H        3.8928618445   -4.2602187178    1.8311344122
H        6.3673483869   -1.9769946691    4.9118224344
H        0.9403430287   -0.5129046081    4.3227848329
19   

C        1.7952633792   -1.1383987054   -0.1359380327
C        0.7723149055   -0.4642203179    0.5264189537
C        2.8224368860   -1.7376495744    0.5966860360
C        0.7776753002   -0.4008185074    1.9209754685
C        4.4971948849   -3.5238015101    2.3966495987
C        5.5694666614   -2.4038012094    4.2698783720
C        2.8506293493   -1.6674839402    2.0033414641
C        1.7998531746   -1.0001818740    2.6679779281
C        3.9562470365   -2.3126776686    2.7405260045
N        4.5880996783   -1.6747531811    3.7975188343
O        1.7244625038   -0.9485156409    4.0313556200
S        5.8277007609   -3.9355811637    3.4450226810
H        1.7962156767   -1.1933350749   -1.2187058800
H       -0.0261371647    0.0044755081   -0.0385308910
H        3.6173562088   -2.2459821919    0.0627258092
H       -0.0309832415    0.1139333803    2.4245321632
H        4.1347526576   -4.1427747368    1.5873337499
H        6.1830380802   -2.0827775824    5.1035064985
H        1.0096011003   -0.3551250744    4.3107110434
19   

C        1.7318374496   -1.2157205426   -0.1149190947
C        0.7459224816   -0.4881634941    0.5430234203
C        2.7646015847   -1.8071144109    0.6152337108
C        0.7961847993   -0.3622870558    1.9309332686
C        4.6334764244   -3.4271526368    2.2959493070
C        5.4842027968   -2.4757247942    4.3629481205
C        2.8386540050   -1.6842870509    2.0199404236
C        1.8242885417   -0.9527560100    2.6779826754
C        3.9683649781   -2.3099472105    2.7363910260
N        4.4733464975   -1.7747401751    3.9121727520
O        1.7721989970   -0.8251314110    4.0373559354
S        5.9294255260   -3.8610493450    3.3781504306
H        1.7013069889   -1.3170839311   -1.1939223573
H       -0.0573501804   -0.0248858997   -0.0195782310
H        3.5285649042   -2.3479183499    0.0694356739
H        0.0157691748    0.1968028840    2.4317889389
H        4.3773550522   -3.9809139777    1.4036332151
H        6.0106996655   -2.2175255527    5.2743087954
H        1.0635987862   -0.2157867692    4.2964904910
19   

C        1.6719301878   -1.2958740499   -0.0962390120
C        0.7195527256   -0.5206319125    0.5520666023
C        2.7137341394   -1.8726747553    0.6319011367
C        0.8156653148   -0.3300248715    1.9283898335
C        4.7709528644   -3.3079008779    2.2146155160
C        5.3904264933   -2.5887309279    4.4473136338
C        2.8346265341   -1.6949446439    2.0310778532
C        1.8538211163   -0.9038042587    2.6755777406
C        3.9803939545   -2.3091725007    2.7348592227
N        4.3552206230   -1.9157162088    4.0113073160
O        1.8352305410   -0.6840068419    4.0238384826
S        6.0240564872   -3.7833732568    3.3294113389
H        1.6087524538   -1.4466789450   -1.1680476983
H       -0.0913373395   -0.0684964900   -0.0086948369
H        3.4417934828   -2.4480232839    0.0749826117
H        0.0627244921    0.2715895258    2.4220083532
H        4.6360020294   -3.7687458934    1.2472384837
H        5.8247158950   -2.4196878237    5.4257004416
H        1.1170302923   -0.0779153781    4.2624193435
19   

C        1.6188220422   -1.3746886435   -0.0698341190
C        0.6996165453   -0.5525250632    0.5659364211
C        2.6724576373   -1.9334012549    0.6549730030
C        0.8426652981   -0.2952912277    1.9262832466
C        4.9221541799   -3.1372737899    2.1610290214
C        5.2636926787   -2.7553280889    4.5308187140
C        2.8437008402   -1.6895366984    2.0406820030
C        1.8946340882   -0.8476209916    2.6708981702
C        3.9840958599   -2.3153326925    2.7462179541
N        4.2054504137   -2.1154235975    4.1015566806
O        1.9316184877   -0.5238151713    3.9975693833
S        6.1143216046   -3.6826263042    3.3102950686
H        1.5171509382   -1.5819731886   -1.1291883351
H       -0.1214057100   -0.1153338310    0.0080605913
H        3.3539696500   -2.5646601811    0.1016631165
H        0.1179702122    0.3481143942    2.4093863056
H        4.9448567979   -3.4274079945    1.1217841801
H        5.5898050749   -2.7150219763    5.5635054062
H        1.1942563282    0.0616310383    4.2286365766
19   

C        1.5756664372   -1.4584749161   -0.0467070541
C        0.6884161841   -0.5879370767    0.5723792752
C        2.6400387579   -1.9991265193    0.6765196690
C        0.8749935479   -0.2620325247    1.9135722811
C        5.0438391094   -2.9391120113    2.1382302036
C        5.1401746024   -2.9387317312    4.5624601248
C        2.8524463632   -1.6844867359    2.0402538617
C        1.9398169773   -0.7938169836    2.6542735456
C        3.9818756343   -2.3175588396    2.7538159092
N        4.0602336826   -2.3312744354    4.1388685593
O        2.0525044143   -0.3816209124    3.9519111771
S        6.1826494732   -3.5674959047    3.2989956141
H        1.4366686165   -1.7221910127   -1.0891275971
H       -0.1415153635   -0.1659551014    0.0159911053
H        3.2882173896   -2.6899396101    0.1531637773
H        0.1792985845    0.4228686704    2.3820148934
H        5.1845072402   -3.0197498088    1.0704640419
H        5.3725077213   -3.0464432266    5.6154768698
H        1.3048803100    0.1846642629    4.1977916578
19   

C        2.0376317058   -0.4603493330    0.0386728258
C        0.7799031439   -0.3354778074    0.6190389925
C        3.0744198632   -1.0692540343    0.7484385704
C        0.5689172247   -0.8157567140    1.9111402233
C        5.3266798871   -1.9331017337    2.5160748297
C        4.9375979720   -3.6935759886    4.1441839548
C        2.8792801933   -1.5699764579    2.0541494782
C        1.6001353876   -1.4262038984    2.6375555159
C        4.0058221477   -2.2274820184    2.7466454074
N        3.8026419027   -3.2410719359    3.6713969207
O        1.3246005754   -1.8231252903    3.9156188294
S        6.3768817397   -2.9280425633    3.4887381500
H        2.2097934141   -0.0912403565   -0.9661012121
H       -0.0295421330    0.1347196575    0.0712199127
H        4.0355502088   -1.1704949369    0.2585526892
H       -0.4118278630   -0.7014018790    2.3556051571
H        5.6744810129   -1.1697850427    1.8342681860
H        4.9857689802   -4.4856102315    4.8822929548
H        0.3782857972   -1.7294027078    4.1060633256
19   

C        2.0238897605   -0.5515166449   -0.0100161538
C        0.7818242947   -0.3666928310    0.5922418406
C        3.0620950153   -1.1521393746    0.7057598883
C        0.5875272574   -0.7762727853    1.9125645577
C        5.3007594401   -1.8001264667    2.6558351671
C        4.9480855031   -3.7768958526    4.0274330790
C        2.8761670080   -1.5861203729    2.0330091111
C        1.6211216055   -1.3768272286    2.6427084933
C        3.9996448211   -2.2186634689    2.7538679696
N        3.8134622705   -3.3577751392    3.5227665322
O        1.3867143378   -1.7104301385    3.9468989204
S        6.3599552545   -2.8252244667    3.5865174203
H        2.1824348157   -0.2338889102   -1.0344093180
H       -0.0279020316    0.0972549271    0.0395523861
H        4.0176124656   -1.3000748150    0.2153418324
H       -0.3784433639   -0.6138982164    2.3740913818
H        5.6203183194   -0.9399035897    2.0836590812
H        5.0133227967   -4.6514691271    4.6640855743
H        0.4461982759   -1.6070325115    4.1611738537
19   

C        1.9988866282   -0.6496084082   -0.0468864601
C        0.7808580669   -0.3908072029    0.5800427327
C        3.0375092172   -1.2490996124    0.6700798525
C        0.6102772627   -0.7250687030    1.9257783679
C        5.2499002778   -1.6931706740    2.8212558664
C        4.9785701959   -3.8553783512    3.9039731462
C        2.8697709514   -1.6077844189    2.0193097981
C        1.6449220078   -1.3236910473    2.6551628275
C        3.9906741597   -2.2258010665    2.7621589508
N        3.8499678210   -3.4689838448    3.3602466551
O        1.4504788111   -1.5965968626    3.9799095509
S        6.3261678360   -2.7408765540    3.7061042627
H        2.1384537146   -0.3889179224   -1.0899250771
H       -0.0283969395    0.0724903619    0.0261331471
H        3.9788794624   -1.4527195318    0.1717827968
H       -0.3357353610   -0.5067028807    2.4051923803
H        5.5268186710   -0.7458476558    2.3787989400
H        5.0777188551   -4.7979982430    4.4294448110
H        0.5204456801   -1.4606219801    4.2215778692
19   

C        1.9667014941   -0.7588031798   -0.0876254870
C        0.7778527663   -0.4198811882    0.5586522390
C        3.0063905612   -1.3526360333    0.6330732278
C        0.6362203476   -0.6711137211    1.9262686009
C        5.1634975669   -1.5977476885    3.0336926600
C        5.0291006504   -3.9134770307    3.7715671409
C        2.8668449360   -1.6203856579    2.0047082277
C        1.6725214247   -1.2635770587    2.6578070826
C        3.9855171922   -2.2360653805    2.7606188658
N        3.9215553936   -3.5605277351    3.1647263900
O        1.5137315231   -1.4699789129    3.9992281488
S        6.2594029237   -2.6586951117    3.8777340612
H        2.0827803410   -0.5645382766   -1.1478701924
H       -0.0316690757    0.0393584978    0.0017699800
H        3.9268554200   -1.6193517497    0.1254340432
H       -0.2878093926   -0.3952506259    2.4187482720
H        5.3708295426   -0.5717180782    2.7611753145
H        5.1803876360   -4.9091742548    4.1718239507
H        0.5978152016   -1.2865951835    4.2637815384
19   

C        1.9275083941   -0.8780790850   -0.1229700166
C        0.7746317432   -0.4545059025    0.5389342657
C        2.9746925107   -1.4541171644    0.6015329510
C        0.6739882901   -0.6093038113    1.9246060208
C        5.0344581351   -1.5357150938    3.3047936859
C        5.0908799586   -3.9460575348    3.6409222372
C        2.8824623781   -1.6076483833    1.9937801459
C        1.7184311544   -1.1834384250    2.6589806755
C        3.9972624715   -2.2333371132    2.7517472240
N        4.0352778011   -3.6058348908    2.9408208167
O        1.5982853995   -1.3109331568    4.0141990864
S        6.1371767281   -2.6129729058    4.1186712236
H        2.0094435796   -0.7649067305   -1.1980403653
H       -0.0403219573   -0.0085991274   -0.0208439847
H        3.8655551897   -1.7925698314    0.0838533968
H       -0.2252753809   -0.2758637395    2.4272133687
H        5.1359030268   -0.4604153837    3.2464351288
H        5.3068802403   -4.9750964908    3.9034938383
H        0.6982165593   -1.0799981830    4.2964602752
19   

C        1.8838584424   -0.9847743636   -0.1380537886
C        0.7670293014   -0.4820939817    0.5294005131
C        2.9396743299   -1.5386787041    0.5909531591
C        0.7089844770   -0.5418606392    1.9245470577
C        4.8738752804   -1.5518504204    3.5671598340
C        5.1600389611   -3.9671398512    3.4865347792
C        2.9000273873   -1.5809635377    1.9938930511
C        1.7627685086   -1.0938961785    2.6626528570
C        4.0094630124   -2.2203129983    2.7454646706
N        4.1693332474   -3.5971346177    2.7104604217
O        1.6754592552   -1.1411089966    4.0256388130
S        5.9829655444   -2.6592992633    4.3300192830
H        1.9305915201   -0.9526626271   -1.2206684777
H       -0.0547759521   -0.0530956193   -0.0335573729
H        3.7990844614   -1.9460464546    0.0695027396
H       -0.1663558984   -0.1548891260    2.4310102328
H        4.8453082279   -0.4823078165    3.7261173717
H        5.4519685286   -5.0045244612    3.6011847781
H        0.7899765072   -0.8668190249    4.3160288433
19   

C        1.8660439458   -1.0522180694   -0.1394390812
C        0.7800250286   -0.4777536612    0.5190310061
C        2.9191053357   -1.5969975366    0.5997833288
C        0.7495943249   -0.4593686510    1.9155953956
C        4.7292137568   -1.6237002228    3.7642610903
C        5.2583992018   -3.9562313127    3.3227311498
C        2.9133908422   -1.5578393019    2.0047734382
C        1.8007401122   -1.0028698868    2.6641801094
C        4.0132735737   -2.2063006718    2.7544126991
N        4.3103826039   -3.5406842167    2.5168128188
O        1.7265251795   -0.9791875669    4.0287516184
S        5.8688073893   -2.7503982446    4.4497610918
H        1.8910471789   -1.0842699768   -1.2227680541
H       -0.0402203190   -0.0557910035   -0.0514661497
H        3.7524287890   -2.0623006279    0.0840945584
H       -0.1046028815   -0.0200061641    2.4153891346
H        4.5785144762   -0.6046635737    4.0946377850
H        5.6384624910   -4.9708678209    3.2982107825
H        0.8542004312   -0.6585934484    4.3122047390
19   

C        1.8461863808   -1.1071168682   -0.1407372576
C        0.7901499435   -0.4632094158    0.4992910992
C        2.8880068494   -1.6523380868    0.6131953554
C        0.7793348534   -0.3757840774    1.8925824949
C        4.6017069921   -1.7064187658    3.8999339604
C        5.3778221408   -3.8938477415    3.1775502090
C        2.9038884267   -1.5510405945    2.0175953122
C        1.8188613394   -0.9201350578    2.6572641841
C        3.9978860273   -2.1954652065    2.7720167351
N        4.4428247271   -3.4490842495    2.3721973756
O        1.7458588333   -0.8283555591    4.0190912607
S        5.8003917879   -2.8185733052    4.5034518377
H        1.8578712040   -1.1920146022   -1.2214328734
H       -0.0218659593   -0.0405077473   -0.0823275254
H        3.6977679398   -2.1658293571    0.1054879735
H       -0.0530840022    0.1178371983    2.3783052702
H        4.3495458352   -0.7572008199    4.3534306874
H        5.8564233580   -4.8560168612    3.0371432003
H        0.8896283137   -0.4528265843    4.2841640338
19   

C        1.8195917432   -1.1736507619   -0.1341851984
C        0.8020323054   -0.4579295127    0.4880180462
C        2.8455474738   -1.7322154910    0.6308109868
C        0.8151885750   -0.3112291581    1.8750237262
C        4.4936344149   -1.8275399062    4.0007153967
C        5.5079878410   -3.8231177549    3.0597664525
C        2.8852784093   -1.5821581813    2.0340514310
C        1.8383270413   -0.8688231825    2.6530040658
C        3.9770513763   -2.2214147237    2.7919360845
N        4.5700323002   -3.3641459487    2.2665726251
O        1.7673124058   -0.7126277502    4.0086968732
S        5.7637939002   -2.8972803907    4.5302674939
H        1.8159842179   -1.3018740062   -1.2106650787
H        0.0022138010   -0.0238220785   -0.1020476752
H        3.6252058303   -2.2908292126    0.1238310561
H        0.0116007072    0.2402399275    2.3469018261
H        4.1598281186   -0.9597111432    4.5523514617
H        6.0859224841   -4.7093877325    2.8251478755
H        0.9362077703   -0.2708954502    4.2511306421
19   

C        1.7713227680   -1.2485008685   -0.1249637768
C        0.7974217281   -0.4626231081    0.4780337774
C        2.7841113019   -1.8174700035    0.6490174643
C        0.8428452499   -0.2552705130    1.8551566799
C        4.3732468779   -1.9765798774    4.0880612100
C        5.6230593931   -3.7283420314    2.9704537527
C        2.8557750506   -1.6159827465    2.0485475311
C        1.8528328412   -0.8222540825    2.6444380713
C        3.9477419450   -2.2509626867    2.8090124676
N        4.6850494027   -3.2543645711    2.1872594916
O        1.7967091016   -0.5883425900    3.9886550541
S        5.7117258563   -2.9894688417    4.5580760374
H        1.7461864628   -1.4216657820   -1.1948567839
H        0.0079505193   -0.0190475409   -0.1188954460
H        3.5266408365   -2.4231586557    0.1409707197
H        0.0729494442    0.3540496484    2.3118438304
H        3.9540777830   -1.2198587855    4.7342525439
H        6.2973126895   -4.5178706366    2.6597573789
H        1.0029051151   -0.0704541619    4.2040777122
19   

C        1.6904795766   -1.3422052512   -0.1042462166
C        0.7646588973   -0.4925131203    0.4856444426
C        2.7059806779   -1.9085723258    0.6676018636
C        0.8634544042   -0.2161265374    1.8470697022
C        4.2373420279   -2.1651727919    4.1486918056
C        5.7281400555   -3.6102694225    2.9005255017
C        2.8292847410   -1.6439767760    2.0548688362
C        1.8779748236   -0.7775463467    2.6351328430
C        3.9262528502   -2.2756264943    2.8111664720
N        4.8000085815   -3.1118295343    2.1214577181
O        1.8832738503   -0.4405957797    3.9576894231
S        5.6381271092   -3.1102760699    4.5766708311
H        1.6265643104   -1.5668362943   -1.1629043925
H       -0.0264852285   -0.0497240716   -0.1096548626
H        3.4055395110   -2.5657764161    0.1629721307
H        0.1336704848    0.4485459551    2.2922885363
H        3.7008354775   -1.5738622091    4.8741250843
H        6.4958746397   -4.2827150786    2.5359880925
H        1.1472308793    0.1643649156    4.1501101972
