45

C     -1.93326    5.73307    0.69670
C      0.40267    4.98473    0.71376
C     -2.19432    4.61191   -0.11100
C     -0.61668    5.88670    1.09045
C     -3.31318    4.00503   -0.77569
C     -7.19594    5.24243   -0.84765
C     -1.09969    3.76594   -0.42722
C     -6.21690    5.96034   -0.11956
C     -4.70528    4.46484   -0.79022
C     -8.18485    7.11384    0.20943
C      0.26780    1.06824   -4.16603
C     -1.40233    2.48776   -4.33646
C     -0.33773    2.16878   -3.23997
C     -8.54052    5.91401   -0.70287
C     -0.55361    1.66829   -5.31419
C     -9.08462    6.42920   -2.04871
C     -9.57032    5.01344    0.00528
C     -0.85165    1.70464   -1.88289
N      0.17505    3.91562   -0.04842
N     -2.92420    2.90273   -1.42495
N     -6.88325    4.16046   -1.52243
N     -4.95544    5.60078   -0.06662
N     -5.59343    3.75374   -1.49599
N     -1.60280    2.75124   -1.20459
N     -6.80911    7.04919    0.48981
O     -8.93382    7.97287    0.62664
F     -0.26671    6.94134    1.86969
F     -1.21715    0.78388   -6.12408
F      0.21048    2.46141   -6.14345
H     -2.70638    6.43236    0.99106
H      1.42097    5.16033    1.05393
H      1.34969    1.05873   -4.30848
H     -0.08653    0.06447   -3.91570
H     -2.36525    2.01211   -4.13790
H     -1.55651    3.53388   -4.60492
H      0.35835    3.00022   -3.10483
H     -9.99884    7.00472   -1.88179
H     -9.30447    5.57974   -2.70053
H     -8.35732    7.07110   -2.55518
H    -10.48881    5.57674    0.18955
H     -9.18939    4.64661    0.96334
H     -9.79436    4.15081   -0.62755
H     -0.01942    1.42227   -1.23276
H     -1.52399    0.85003   -1.99026
H     -6.32871    7.72661    1.07275
