57

C     -3.07496   -0.96159   -0.73361
C     -2.11502    0.10238   -0.68100
C     -0.91464   -0.32403   -0.15014
C     -4.45090   -0.88661   -1.21948
C     -2.59423   -2.16407   -0.24670
C     -4.64930   -3.31818   -0.71388
C     -2.40774    1.49324   -1.16843
C     -7.72800   -2.55738   -4.04308
C     -5.57067   -3.80354   -3.73473
C     -6.07988   -0.23288   -4.39555
C      0.31207    0.45395    0.11328
C     -2.17364   -5.41131   -0.80962
C     -2.79248   -4.57495    0.31544
C     -6.42539   -2.17963   -1.95024
C     -0.61475    2.28075    3.47150
C     -0.67339    1.94996    1.97695
C     -1.51810   -6.67432   -0.27422
C     -6.30675   -2.48810   -3.46673
N     -5.11429   -2.12889   -1.27376
N     -3.33900   -3.29995   -0.18206
N     -1.65474    3.26710    3.73941
N      0.37937    0.93766    1.59013
O     -5.00257    0.15966   -1.53964
O     -5.30966   -4.34222   -0.67124
O     -5.48553   -1.49647   -4.10664
F     -2.45561   -7.42571    0.44845
S     -0.93787   -2.04491    0.28035
H     -3.21512    1.94510   -0.58583
H     -1.53054    2.14297   -1.12373
H     -2.76640    1.46049   -2.19991
H     -8.31760   -1.66539   -3.81237
H     -7.68606   -2.67286   -5.12976
H     -8.25577   -3.42279   -3.63191
H     -4.52344   -3.72655   -3.42768
H     -5.58270   -4.00657   -4.80870
H     -6.03169   -4.63807   -3.20323
H     -5.26828    0.40348   -4.75494
H     -6.51499    0.23676   -3.50703
H     -6.83793   -0.31411   -5.18329
H      1.22877   -0.12325   -0.03393
H      0.36862    1.35917   -0.49158
H     -1.41158   -4.83224   -1.34574
H     -2.95656   -5.67624   -1.52593
H     -2.05785   -4.34096    1.09293
H     -3.61029   -5.12091    0.78228
H     -6.89677   -1.20936   -1.79864
H     -7.02285   -2.94594   -1.45827
H     -0.69674    1.35166    4.06220
H      0.35713    2.72768    3.70861
H     -0.50440    2.84487    1.37658
H     -1.63452    1.51493    1.70071
H     -0.69236   -6.44532    0.40952
H     -1.14622   -7.30215   -1.08866
H     -1.44322    3.80405    4.57644
H     -2.56010    2.82538    3.88252
H      0.28377    0.11241    2.19379
H      1.31110    1.32799    1.77658
