22   
Generated by ForceBalance from scan.xyz: Frame 1 of 24
C        1.6384650271   -0.8013091298    0.5194889704
C        0.5676396746   -0.5446723080    1.2833256057
C        1.1665768455    1.9081572223    1.9377961615
C       -0.3336067595    1.7549785310    2.0820194210
C        0.5765181164    0.5625472085    2.3024290606
C       -0.6684142745   -1.4238072664    1.2398419939
C        0.8146928575    0.1162510268    3.7379890835
N       -1.3648349083   -0.1020614102    4.5825841035
O       -0.1493785389   -0.8117853686    4.2457042572
H        1.6437547545   -1.6202125270   -0.1975335136
H        2.5386914355   -0.1948293133    0.5806078343
H        1.5664739306    2.0293517148    0.9365007138
H        1.7020497236    2.4591200425    2.7067924472
H       -0.8212458045    2.1857612698    2.9507980521
H       -0.9223703597    1.7714142077    1.1686124519
H       -0.4975382321   -2.3491839388    1.8007233585
H       -1.5215390297   -0.9300178458    1.7129371012
H       -0.9403333312   -1.6932517591    0.2147501392
H        0.8594916488    0.9882279931    4.4017129077
H        1.7623107917   -0.4302161966    3.7972355923
H       -1.6147082448   -0.5089975442    5.4862998415
H       -2.0567000743   -0.4586499828    3.9181870973
22   
Generated by ForceBalance from scan.xyz: Frame 2 of 24
C        1.5819426580   -0.7671174745    0.5301873471
C        0.5290646346   -0.5283450597    1.3244234971
C        1.1376068125    1.9207558101    1.9832550058
C       -0.3611868138    1.7700272771    2.1363066840
C        0.5479464743    0.5745522238    2.3486570902
C       -0.6964577609   -1.4165599122    1.3113412468
C        0.7948851168    0.1286733035    3.7830148812
N       -1.3933132618   -0.0914240529    4.6043223136
O       -0.1657186304   -0.7964989744    4.3005878868
H        1.5756094783   -1.5796377694   -0.1935644586
H        2.4785228781   -0.1537440957    0.5744403082
H        1.5307786506    2.0443308530    0.9796438161
H        1.6797614922    2.4684575347    2.7498602476
H       -0.8438885316    2.1989822703    3.0087263863
H       -0.9549776114    1.7899503731    1.2261700181
H       -0.6013076987   -2.1976465218    2.0740975355
H       -1.5968713021   -0.8468383970    1.5660048681
H       -0.8424238490   -1.8981169936    0.3402592552
H        0.8469504926    1.0021539103    4.4444098927
H        1.7417459627   -0.4199425533    3.8369633016
H       -1.6715238044   -0.5111859028    5.4936074689
H       -2.0613114233   -0.4404173480    3.9117974809
22   
Generated by ForceBalance from scan.xyz: Frame 3 of 24
C        1.5641956807   -0.7419592252    0.4845979177
C        0.5338214384   -0.5347550918    1.3166033988
C        1.1447213063    1.9084642667    1.9933453529
C       -0.3531714545    1.7570747440    2.1477671232
C        0.5570093871    0.5592143195    2.3511430261
C       -0.6888384588   -1.4226430505    1.3088357895
C        0.8054451084    0.1082342916    3.7842972041
N       -1.3850244132   -0.0872310819    4.6059841199
O       -0.1628591590   -0.8046769339    4.3099351318
H        1.5468813268   -1.5424683028   -0.2519567169
H        2.4541612360   -0.1181904394    0.5128117144
H        1.5366629666    2.0404354012    0.9904926326
H        1.6872985178    2.4505520319    2.7635555600
H       -0.8337554959    2.1803006818    3.0240104838
H       -0.9483168076    1.7826281139    1.2387708920
H       -0.6952349175   -2.0627444822    2.1979761196
H       -1.6056707642   -0.8215986544    1.3466914769
H       -0.7234417132   -2.0587205198    0.4200316190
H        0.8704665046    0.9816890270    4.4446391533
H        1.7459795428   -0.4511721562    3.8347906278
H       -1.6811988322   -0.5157877794    5.4851215654
H       -2.0484777274   -0.4154939739    3.8987770649
22   
Generated by ForceBalance from scan.xyz: Frame 4 of 24
C        1.5566258673   -0.7105186235    0.4422653241
C        0.5431503738   -0.5399610875    1.3028711815
C        1.1400193517    1.9005465458    2.0028289614
C       -0.3561696444    1.7389271956    2.1589596507
C        0.5620722881    0.5437422794    2.3487130454
C       -0.6808163154   -1.4250721370    1.2795324491
C        0.8145283840    0.0818429964    3.7782952362
N       -1.3705185022   -0.0720384949    4.6227763349
O       -0.1666320216   -0.8136108916    4.3107902130
H        1.5391280318   -1.4995631291   -0.3064217834
H        2.4364415642   -0.0723300344    0.4632289143
H        1.5286970641    2.0461698595    1.0007178139
H        1.6806314115    2.4381938756    2.7774350843
H       -0.8363728265    2.1514021300    3.0404665391
H       -0.9535408641    1.7699637018    1.2516898012
H       -0.8112117936   -1.9268136326    2.2435282209
H       -1.5829193865   -0.8277690911    1.0945869926
H       -0.6118172597   -2.1847730000    0.4955727259
H        0.9016298546    0.9511010724    4.4414327217
H        1.7444547351   -0.4956324700    3.8187196017
H       -1.6811201806   -0.5187714169    5.4876951648
H       -2.0403481769   -0.3601396784    3.9037985842
22   
Generated by ForceBalance from scan.xyz: Frame 5 of 24
C        1.5435762037   -0.6918109042    0.4212777832
C        0.5471232495   -0.5492243626    1.3065985032
C        1.1378502604    1.8902631338    2.0155121699
C       -0.3578170464    1.7247386108    2.1722932548
C        0.5640253957    0.5304625720    2.3563209543
C       -0.6793845847   -1.4332406190    1.2714569752
C        0.8190930490    0.0666405138    3.7852415680
N       -1.3536126199   -0.0500480790    4.6657851321
O       -0.1712430001   -0.8141039894    4.3261908671
H        1.5267583448   -1.4740349850   -0.3346868521
H        2.4131604115   -0.0397654396    0.4318119352
H        1.5247484247    2.0430690040    1.0138950832
H        1.6774318751    2.4259317809    2.7921341026
H       -0.8376515721    2.1330147692    3.0559922219
H       -0.9561736414    1.7580119694    1.2658580603
H       -0.9426360502   -1.7820328692    2.2734032841
H       -1.5357571373   -0.8799608925    0.8645622599
H       -0.5207111840   -2.3057033750    0.6305444951
H        0.9200212054    0.9353151192    4.4468457579
H        1.7422888772   -0.5217361946    3.8211585944
H       -1.6641293866   -0.5049501022    5.5264389383
H       -2.0397354482   -0.3081434555    3.9505703061
22   
Generated by ForceBalance from scan.xyz: Frame 6 of 24
C        1.5734889761   -0.6496682269    0.3972824744
C        0.5716581283   -0.5344294363    1.2802550350
C        1.1249775431    1.9014199894    2.0285325383
C       -0.3683491187    1.7107836259    2.1827935711
C        0.5717575342    0.5278770555    2.3473229133
C       -0.6538696277   -1.4227286131    1.2069781654
C        0.8302504444    0.0400809984    3.7675467517
N       -1.3260348781   -0.0608515185    4.6931970669
O       -0.1685759481   -0.8372838629    4.3002702378
H        1.5665210274   -1.4199626843   -0.3713146319
H        2.4365494158    0.0105150857    0.4228763582
H        1.5094217601    2.0757213839    1.0294927764
H        1.6556467904    2.4337189803    2.8135271412
H       -0.8517850643    2.0991104623    3.0734444582
H       -0.9685326761    1.7493094049    1.2778377756
H       -1.0755275876   -1.6077254580    2.1966086522
H       -1.4233010715   -0.9601248579    0.5760985954
H       -0.4123684429   -2.3892367480    0.7534470704
H        0.9456234872    0.8961697957    4.4426551841
H        1.7463578514   -0.5598911528    3.7880385225
H       -1.6155207908   -0.5253666822    5.5561409871
H       -2.0406884695   -0.2945818608    3.9979314201
22   
Generated by ForceBalance from scan.xyz: Frame 7 of 24
C        1.6150208138   -0.6335890779    0.3841353100
C        0.5950344853   -0.5023507900    1.2434264907
C        1.1461881796    1.9266881647    2.0121039473
C       -0.3457358720    1.7291810623    2.1785890429
C        0.5991858735    0.5486956566    2.3207100410
C       -0.6383221375   -1.3833816202    1.1445742215
C        0.8726901064    0.0411429984    3.7306487953
N       -1.2650569710   -0.0902256522    4.6935394127
O       -0.1161386667   -0.8533074589    4.2533123779
H        1.6109694559   -1.4000545799   -0.3887080607
H        2.4878254976    0.0125389919    0.4311826961
H        1.5211122802    2.1113456166    1.0111723088
H        1.6823118819    2.4527782636    2.7976376968
H       -0.8213869625    2.1063427296    3.0782813106
H       -0.9553707635    1.7756981390    1.2802736303
H       -1.2330243473   -1.3494922467    2.0578820018
H       -1.2703821903   -1.0698876667    0.3051780111
H       -0.3641145703   -2.4277020526    0.9643547602
H        0.9864074602    0.8862913259    4.4196148810
H        1.7937233893   -0.5516033519    3.7331746629
H       -1.5213916909   -0.5642757599    5.5618513096
H       -2.0017311573   -0.3241418679    4.0219994484
22   
Generated by ForceBalance from scan.xyz: Frame 8 of 24
C        1.6174878899   -0.6937113058    0.4027542122
C        0.5667144086   -0.4864252664    1.2079924019
C        1.1578801867    1.9342566129    1.9783767612
C       -0.3333167440    1.7500584761    2.1734214602
C        0.6006974782    0.5612517727    2.2878933939
C       -0.6890094623   -1.3364699787    1.1070313518
C        0.9008616748    0.0348534970    3.6841209817
N       -1.2311222047   -0.2185885351    4.6330958050
O       -0.0461584534   -0.9164324434    4.1814585658
H        1.6057276931   -1.4692457215   -0.3610793168
H        2.5196448101   -0.0918081454    0.4795321486
H        1.5159100364    2.1172526078    0.9706596660
H        1.7161105915    2.4491725733    2.7560978209
H       -0.7888547956    2.1242917255    3.0848361414
H       -0.9602632906    1.8109640818    1.2877618129
H       -1.4412112047   -1.0168507273    1.8308663547
H       -1.1408762321   -1.2548246669    0.1122137344
H       -0.4745154660   -2.3923319307    1.2979865180
H        0.9795709061    0.8674106874    4.3934989059
H        1.8470310874   -0.5169452853    3.6692535422
H       -1.4440256802   -0.6933978372    5.5128041108
H       -1.9620603610   -0.5098718822    3.9785151486
22   
Generated by ForceBalance from scan.xyz: Frame 9 of 24
C        1.5777434798   -0.6722039862    0.3895212312
C        0.5387807265   -0.4638487288    1.2099322748
C        1.1648050498    1.9431714885    1.9967909937
C       -0.3269799024    1.7746851460    2.1998135492
C        0.5936731298    0.5742277483    2.2982045824
C       -0.7019686896   -1.3364546008    1.1581338106
C        0.8980136124    0.0333074376    3.6880064109
N       -1.2447479727   -0.2615281212    4.6005139273
O       -0.0374386854   -0.9353601839    4.1720943448
H        1.5514705720   -1.4441487085   -0.3773296757
H        2.4814253399   -0.0709159200    0.4525642938
H        1.5179292858    2.1311622845    0.9882213467
H        1.7348341279    2.4442338172    2.7750426274
H       -0.7736482701    2.1455043306    3.1169738438
H       -0.9579433998    1.8504129201    1.3180815595
H       -1.5356954405   -0.8545552794    1.6776655438
H       -1.0274593820   -1.5061292314    0.1266191918
H       -0.5290660475   -2.3023899915    1.6422365245
H        0.9674343586    0.8583501029    4.4074452176
H        1.8501179674   -0.5081166497    3.6675751515
H       -1.4674613578   -0.7440260212    5.4735480305
H       -1.9545173609   -0.5646657369    3.9283376541
22   
Generated by ForceBalance from scan.xyz: Frame 10 of 24
C        1.5563744288   -0.6383023410    0.3090197197
C        0.5449684566   -0.4624263116    1.1707086172
C        1.2002991737    1.9248982870    1.9926504482
C       -0.2918164135    1.7682196244    2.1972679962
C        0.6176973528    0.5566774026    2.2763021210
C       -0.6847896832   -1.3454848264    1.1460106354
C        0.9183720094   -0.0039346532    3.6593282984
N       -1.2359188502   -0.2724896630    4.5536329991
O       -0.0308895114   -0.9601889518    4.1410845250
H        1.5112839128   -1.3917871312   -0.4747876376
H        2.4561733151   -0.0298770212    0.3558679923
H        1.5522693224    2.1257184873    0.9862522314
H        1.7773686449    2.4085702032    2.7766323492
H       -0.7331042101    2.1295304191    3.1206928998
H       -0.9236533493    1.8615843969    1.3178765986
H       -1.5669651444   -0.7845504488    1.4756024073
H       -0.8945823176   -1.7137323113    0.1371858193
H       -0.5695569834   -2.1952888160    1.8261464768
H        1.0065690933    0.8135641442    4.3853875221
H        1.8602534955   -0.5626630189    3.6306569434
H       -1.4814010230   -0.7604830449    5.4173650385
H       -1.9369778051   -0.5578757345    3.8646364487
22   
Generated by ForceBalance from scan.xyz: Frame 11 of 24
C        1.5335870353   -0.6094666608    0.2910934942
C        0.5413840286   -0.4642564544    1.1805626708
C        1.1928622313    1.9203176198    2.0128570667
C       -0.2976979301    1.7597435953    2.2199737271
C        0.6146568235    0.5486932965    2.2923607379
C       -0.6845656403   -1.3480087413    1.1595197569
C        0.9212323275   -0.0111587924    3.6749443381
N       -1.2346678970   -0.2648484423    4.5684592581
O       -0.0291459738   -0.9598559249    4.1689295383
H        1.4813949375   -1.3528679832   -0.5015347303
H        2.4261887281    0.0101584468    0.3267254264
H        1.5418763602    2.1274843086    1.0068494725
H        1.7707467515    2.4014765855    2.7977244607
H       -0.7382432543    2.1158305028    3.1457253267
H       -0.9312518495    1.8551409948    1.3420945004
H       -1.5940747922   -0.7467289515    1.2822865243
H       -0.7703528415   -1.8959146436    0.2166527898
H       -0.6566063406   -2.0633440345    1.9879762648
H        1.0185821521    0.8087366952    4.3971240700
H        1.8599203945   -0.5749628440    3.6425265793
H       -1.4981470885   -0.7603289485    5.4224560282
H       -1.9272273485   -0.5351571869    3.8646231611
22   
Generated by ForceBalance from scan.xyz: Frame 12 of 24
C        1.5220109392   -0.5837792926    0.2595807975
C        0.5465126004   -0.4716697003    1.1721244514
C        1.1914245580    1.9084215727    2.0215517623
C       -0.2980360742    1.7427103243    2.2296264659
C        0.6180263898    0.5326759501    2.2922242473
C       -0.6839711840   -1.3472334441    1.1362329103
C        0.9289709591   -0.0321095766    3.6724721290
N       -1.2188142938   -0.2534170338    4.5933492570
O       -0.0293848707   -0.9670528749    4.1778588815
H        1.4669224546   -1.3148532887   -0.5441130420
H        2.4075140188    0.0460591745    0.2909793878
H        1.5381464772    2.1251630261    1.0169034756
H        1.7687876165    2.3853577641    2.8092968843
H       -0.7376894917    2.0914021632    3.1585790890
H       -0.9329626946    1.8429822060    1.3533993934
H       -1.5904184437   -0.7350001719    1.0464146979
H       -0.6558171102   -2.0474266655    0.2964420873
H       -0.7703483012   -1.9217202564    2.0641074517
H        1.0427196825    0.7866744541    4.3933064813
H        1.8601445115   -0.6076401270    3.6324621779
H       -1.4908644964   -0.7600305456    5.4380201768
H       -1.9194246283   -0.4934124084    3.8861797947
22   
Generated by ForceBalance from scan.xyz: Frame 13 of 24
C        1.5166261663   -0.5561895173    0.2325238399
C        0.5547434089   -0.4741034647    1.1625806860
C        1.1853436739    1.9018511523    2.0337825774
C       -0.3030807556    1.7263827638    2.2406168848
C        0.6201324455    0.5202166099    2.2919139644
C       -0.6805730421   -1.3441705676    1.1056480990
C        0.9336641346   -0.0540796933    3.6680933851
N       -1.1995445885   -0.2370399211    4.6306545580
O       -0.0364626184   -0.9733120863    4.1809286479
H        1.4595941628   -1.2779528081   -0.5795330759
H        2.3947967525    0.0838518898    0.2602664045
H        1.5303359570    2.1311467426    1.0314413701
H        1.7596158255    2.3749382796    2.8260110881
H       -0.7432123745    2.0651361135    3.1730105501
H       -0.9390229778    1.8312369691    1.3657756422
H       -1.5540748267   -0.7568661148    0.7954335664
H       -0.5526490004   -2.1784494407    0.4098923072
H       -0.8986115401   -1.7632662313    2.0922016279
H        1.0670296505    0.7600740440    4.3904926831
H        1.8547862769   -0.6446811041    3.6180837350
H       -1.4723396924   -0.7554492328    5.4678838575
H       -1.9182021554   -0.4406332840    3.9299784045
22   
Generated by ForceBalance from scan.xyz: Frame 14 of 24
C        1.8802927300   -0.8401707510    0.5109902290
C        0.7934410510   -0.6488148496    1.2717835727
C        1.2539719987    1.8589670927    1.8160154043
C       -0.2457759084    1.6592136498    1.8491338146
C        0.6834607134    0.5153079429    2.2203481780
C       -0.4158967834   -1.5558746105    1.1666653133
C        0.8113355840    0.1780543760    3.7008476369
N       -1.4211632176    0.1301949043    4.4276515556
O       -0.2246470032   -0.6599062196    4.2255741366
H        1.9520585664   -1.6836060372   -0.1728080887
H        2.7358720039   -0.1713186883    0.5576505750
H        1.7298499844    1.9377549439    0.8446099163
H        1.7041089101    2.4767842724    2.5885869633
H       -0.8142607528    2.1268949748    2.6465370519
H       -0.7579562776    1.5962737555    0.8928992384
H       -1.1357783949   -1.1640977413    0.4380134080
H       -0.1317122029   -2.5705261629    0.8723381243
H       -0.9250173242   -1.6323905038    2.1304278504
H        0.8547193878    1.0999123389    4.2927389219
H        1.7270599410   -0.3993496303    3.8672337765
H       -1.7850206502   -0.2486563088    5.3041920914
H       -2.0654587633   -0.1881040081    3.6980698387
22   
Generated by ForceBalance from scan.xyz: Frame 15 of 24
C        1.8759732434   -0.8521457090    0.5299190649
C        0.7759234031   -0.6385565630    1.2649649524
C        1.2454899159    1.8655826413    1.8147960059
C       -0.2549108316    1.6678050077    1.8639399172
C        0.6760412338    0.5216170080    2.2184695203
C       -0.4422188729   -1.5376874850    1.1418092981
C        0.8201775549    0.1715516638    3.6939594934
N       -1.3971911185    0.1088980436    4.4646057265
O       -0.2073122442   -0.6779288875    4.2167553331
H        1.9472904277   -1.6970259024   -0.1525996288
H        2.7408888030   -0.1967429497    0.5930934005
H        1.7110213481    1.9464685470    0.8384222549
H        1.7051097796    2.4796098077    2.5848593929
H       -0.8130570709    2.1327651828    2.6703139217
H       -0.7788316065    1.6104451632    0.9136613234
H       -0.9992310276   -1.3190067302    0.2234480839
H       -0.1597006920   -2.5947397678    1.1288122877
H       -1.1205988786   -1.3984999796    1.9850486883
H        0.8641996308    1.0870456012    4.2955063642
H        1.7406843437   -0.4026129696    3.8445500170
H       -1.7299860993   -0.2729455384    5.3522179998
H       -2.0670108236   -0.2080412755    3.7580165385
22   
Generated by ForceBalance from scan.xyz: Frame 16 of 24
C        1.8398780643   -0.8934180330    0.5883623306
C        0.7194160997   -0.6154403600    1.2686445847
C        1.2266508231    1.8841272312    1.8133866752
C       -0.2755201009    1.7015187051    1.8886617384
C        0.6482590338    0.5463963614    2.2224884767
C       -0.5167645767   -1.4916808366    1.1511907861
C        0.8177317623    0.1836369552    3.6909917841
N       -1.3928110305    0.0143618532    4.4628013758
O       -0.1706170314   -0.7163465239    4.2032484924
H        1.9020171339   -1.7492804801   -0.0814826268
H        2.7275923048   -0.2720497528    0.6771171565
H        1.6769227539    1.9588370698    0.8290979815
H        1.7073556332    2.4907008919    2.5766547681
H       -0.8159555903    2.1686761554    2.7059130714
H       -0.8167644426    1.6538323589    0.9474217206
H       -0.8694700696   -1.5325266175    0.1144549101
H       -0.3078614306   -2.5186030722    1.4665087334
H       -1.3364377729   -1.1123400607    1.7638127442
H        0.8296949302    1.0914428028    4.3060507715
H        1.7615755161   -0.3556945863    3.8258926171
H       -1.6858504356   -0.3614371040    5.3669962942
H       -2.0598839736   -0.3563409231    3.7807540889
22   
Generated by ForceBalance from scan.xyz: Frame 17 of 24
C        1.7987187461   -0.8732234903    0.5655422551
C        0.6903693731   -0.5953137743    1.2655996843
C        1.2313648165    1.8927170334    1.8332675165
C       -0.2720524993    1.7259732813    1.9146544099
C        0.6405607573    0.5573683067    2.2319048692
C       -0.5351087831   -1.4883265477    1.2013029643
C        0.8136966024    0.1776822481    3.6956468430
N       -1.4043869943   -0.0220059102    4.4387421212
O       -0.1677019964   -0.7345614630    4.1983600981
H        1.8466974255   -1.7239292081   -0.1117910014
H        2.6890808507   -0.2540701969    0.6421137013
H        1.6769161445    1.9731205678    0.8472503878
H        1.7233990257    2.4855044902    2.6001664197
H       -0.8041044703    2.1898026157    2.7392411839
H       -0.8179053694    1.6933610024    0.9753650232
H       -0.7497111602   -1.7839832675    0.1686179912
H       -0.3788909754   -2.4081729342    1.7739769855
H       -1.4210778296   -0.9843530046    1.5955961337
H        0.8227107305    1.0784839672    4.3213491569
H        1.7602504886   -0.3588388608    3.8232169712
H       -1.7064491795   -0.4034690986    5.3375477529
H       -2.0534694382   -0.4025706354    3.7449619325
22   
Generated by ForceBalance from scan.xyz: Frame 18 of 24
C        1.7821082028   -0.8513702583    0.5117802320
C        0.6913294060   -0.5908945166    1.2456916434
C        1.2518039182    1.8864439258    1.8395659452
C       -0.2518639099    1.7287453856    1.9228733489
C        0.6539656257    0.5504329500    2.2265458249
C       -0.5275464522   -1.4886259825    1.2073827900
C        0.8285381863    0.1592720692    3.6872857776
N       -1.3974564425   -0.0474516879    4.4046761508
O       -0.1526695489   -0.7536731243    4.1883317865
H        1.8152683546   -1.6900787556   -0.1808040855
H        2.6717340211   -0.2296740101    0.5751233063
H        1.6951533937    1.9749492871    0.8533165660
H        1.7499632137    2.4677214813    2.6112816185
H       -0.7800083691    2.1867365007    2.7531095055
H       -0.7993940382    1.7085826359    0.9842104073
H       -0.6244365225   -1.9819759797    0.2347666561
H       -0.4508563169   -2.2725026831    1.9681963906
H       -1.4456419349   -0.9223579399    1.3942123229
H        0.8412964163    1.0568662083    4.3177552566
H        1.7740326337   -0.3801683664    3.8107071475
H       -1.7143506388   -0.4304864050    5.2976216551
H       -2.0302953539   -0.4314367275    3.6978518548
22   
Generated by ForceBalance from scan.xyz: Frame 19 of 24
C        1.7525884555   -0.8241582095    0.4928118084
C        0.6791613037   -0.5902812534    1.2607434270
C        1.2377915018    1.8847669057    1.8646374412
C       -0.2647610540    1.7250505818    1.9514646658
C        0.6435075588    0.5456879362    2.2485028498
C       -0.5353982376   -1.4896514164    1.2297073653
C        0.8236301332    0.1551918658    3.7093255340
N       -1.4044094209   -0.0358226423    4.4235456342
O       -0.1605225409   -0.7482900660    4.2214020152
H        1.7797610330   -1.6543836026   -0.2097983495
H        2.6355779232   -0.1917724959    0.5411190961
H        1.6778438023    1.9792528190    0.8775950162
H        1.7374605868    2.4631710300    2.6374678895
H       -0.7915493173    2.1788091065    2.7848180189
H       -0.8143947986    1.7076799340    1.0140336482
H       -0.5263172640   -2.1436588100    0.3523852245
H       -0.5649633090   -2.1199041603    2.1248189446
H       -1.4594054741   -0.8998964983    1.2086939371
H        0.8462599272    1.0548851178    4.3365046009
H        1.7659596946   -0.3903943944    3.8295158814
H       -1.7399904974   -0.4297876215    5.3047080125
H       -2.0267784329   -0.4040454517    3.6989188079
22   
Generated by ForceBalance from scan.xyz: Frame 20 of 24
C        1.7419927338   -0.7948222136    0.4685170119
C        0.6844428342   -0.5969742894    1.2681146457
C        1.2236337363    1.8794911856    1.8832885704
C       -0.2772142505    1.7087970743    1.9702199317
C        0.6401714683    0.5338018165    2.2619062576
C       -0.5264814888   -1.4991884030    1.2271664267
C        0.8237688252    0.1424904854    3.7227151303
N       -1.3997746082   -0.0108350949    4.4596209744
O       -0.1702344523   -0.7447910524    4.2450117921
H        1.7702141825   -1.6172946292   -0.2429397261
H        2.6133128062   -0.1457174014    0.5039358551
H        1.6618548886    1.9833399652    0.8965297472
H        1.7192816688    2.4578835781    2.6586203642
H       -0.8062527013    2.1555634086    2.8058885400
H       -0.8270974861    1.6915940963    1.0330401144
H       -0.4222541889   -2.2813050715    0.4697341454
H       -0.6856552475   -1.9706826970    2.2021937715
H       -1.4292073166   -0.9182527858    0.9983746393
H        0.8619331657    1.0428665397    4.3478481132
H        1.7592709291   -0.4154472158    3.8387295991
H       -1.7452486382   -0.4177374251    5.3309610603
H       -2.0287883160   -0.3482615016    3.7254566111
22   
Generated by ForceBalance from scan.xyz: Frame 21 of 24
C        1.7377777438   -0.7644568043    0.4462603564
C        0.6946227021   -0.6012944745    1.2722848832
C        1.2106535589    1.8760770838    1.9028847038
C       -0.2886075900    1.6924919138    1.9878849394
C        0.6391491936    0.5228000309    2.2730659867
C       -0.5137537871   -1.5078263126    1.2143735886
C        0.8238296964    0.1259705266    3.7327689377
N       -1.3893360098    0.0236314520    4.5102948475
O       -0.1850441744   -0.7411997239    4.2618947239
H        1.7701879035   -1.5791720884   -0.2740328278
H        2.5964494487   -0.0985234545    0.4721363391
H        1.6479474186    1.9916146160    0.9171540133
H        1.7003781593    2.4539881580    2.6822267385
H       -0.8206032619    2.1308258497    2.8261186909
H       -0.8380631766    1.6762743216    1.0505502903
H       -0.3259103404   -2.3986275442    0.6086016892
H       -0.8189086996   -1.8136750820    2.2189031914
H       -1.3642670855   -0.9707170447    0.7737117767
H        0.8825372013    1.0242098278    4.3589232851
H        1.7491704377   -0.4497054363    3.8426724917
H       -1.7332282398   -0.3913233276    5.3784602736
H       -2.0400662156   -0.2789129457    3.7796692390
22   
Generated by ForceBalance from scan.xyz: Frame 22 of 24
C        1.7378634440   -0.7670514385    0.4488822168
C        0.6947998176   -0.6102785189    1.2761168867
C        1.1994713769    1.8681588231    1.9080529586
C       -0.2985354638    1.6759487031    2.0032724065
C        0.6383387220    0.5111446587    2.2792053289
C       -0.5211296413   -1.5098702641    1.1961974487
C        0.8323406618    0.1081723832    3.7360231751
N       -1.3613394773    0.0545870841    4.5735418814
O       -0.1883542877   -0.7400123618    4.2744200630
H        1.7720950416   -1.5796904913   -0.2740161269
H        2.5949142904   -0.0992090509    0.4770936798
H        1.6293457251    1.9879972943    0.9195723787
H        1.6904958423    2.4481265914    2.6850125326
H       -0.8251703293    2.1109391452    2.8465784994
H       -0.8553828699    1.6587355966    1.0703934753
H       -0.2742015029   -2.4982656359    0.7991399169
H       -0.9937755355   -1.6227353837    2.1741131739
H       -1.2725215312   -1.0607070914    0.5330869724
H        0.9160509386    1.0028696910    4.3640487453
H        1.7474366316   -0.4857822793    3.8331455700
H       -1.6822679919   -0.3553894999    5.4528719632
H       -2.0486535200   -0.2264135760    3.8683565101
22   
Generated by ForceBalance from scan.xyz: Frame 23 of 24
C        1.7355652283   -0.7865629883    0.4761828815
C        0.6744663872   -0.5980860479    1.2727845321
C        1.1897812570    1.8776430455    1.9051510048
C       -0.3078979755    1.6864946927    2.0196950072
C        0.6303776138    0.5207955666    2.2784003713
C       -0.5570336393   -1.4806189894    1.1694843398
C        0.8440812049    0.1066514809    3.7286526232
N       -1.3329332348    0.0210082264    4.6046647335
O       -0.1621653233   -0.7598718931    4.2645545104
H        1.7670626847   -1.6019629586   -0.2441562087
H        2.6076829186   -0.1395555268    0.5248325362
H        1.6074886777    1.9980624896    0.9113676904
H        1.6914832972    2.4549852333    2.6773157113
H       -0.8224443216    2.1189934837    2.8718284869
H       -0.8780904423    1.6735604638    1.0947488837
H       -0.2929587585   -2.5371043966    1.0670489549
H       -1.2020890462   -1.3689163288    2.0419858845
H       -1.1519812866   -1.2002902836    0.2914120747
H        0.9238331214    0.9951140729    4.3660107114
H        1.7669695654   -0.4777352805    3.8088969706
H       -1.6215112544   -0.3944544890    5.4926698096
H       -2.0401398453   -0.2655519990    3.9219860220
22   
Generated by ForceBalance from scan.xyz: Frame 24 of 24
C        1.6911120848   -0.8188735781    0.5202527474
C        0.6123646087   -0.5732078179    1.2762056773
C        1.1730255552    1.8928470469    1.9113751106
C       -0.3259167487    1.7210743564    2.0490462858
C        0.5993319264    0.5428675498    2.2854717953
C       -0.6318769363   -1.4416299107    1.1863566616
C        0.8329146971    0.1114430940    3.7265959927
N       -1.3385804635   -0.0545290175    4.6033332977
O       -0.1460761517   -0.7937963669    4.2477520082
H        1.7112115132   -1.6414064045   -0.1925384955
H        2.5854298192   -0.2044786813    0.5883585470
H        1.5772642677    2.0100334682    0.9114116703
H        1.6956716591    2.4588185810    2.6782241124
H       -0.8219273950    2.1550540546    2.9114902660
H       -0.9109595150    1.7216021047    1.1331677531
H       -0.4079161381   -2.4806313733    1.4479586136
H       -1.4086622577   -1.0967429603    1.8709797281
H       -1.0472069130   -1.4346616762    0.1726844465
H        0.8919897578    0.9902992237    4.3797014888
H        1.7718271986   -0.4490833993    3.7908609356
H       -1.5965113559   -0.4722387931    5.4997792391
H       -2.0452883247   -0.3752449776    3.9359310107
