24   

C       -4.2534858755   -1.0923241561    5.2354979715
C       -4.4072098625   -0.5769536503    3.9335696918
C       -2.0772035101   -1.5831338438    4.7813885840
C       -2.2078636747   -1.0693910665    3.4642395706
C       -1.1513787710   -0.5771747403    1.2116694518
C       -0.0365808365   -0.5511808993    0.4173173485
C       -1.0318912658   -1.0975458541    2.5615122465
C       -0.9539103509    0.9614747385   -1.2966597274
C        1.3946641913    0.0113694189   -1.4857863210
N       -3.0894702492   -1.6007588183    5.6753562058
N       -3.4001020698   -0.5586883015    3.0426396875
N        0.1311845658    0.1350126058   -0.7389896955
O        0.0352563919   -1.5613261371    2.9578164547
H       -5.1062359670   -1.0767140251    5.9038388327
H       -5.3716276377   -0.1805633215    3.6384566551
H       -1.1226703376   -1.9852372722    5.1009314912
H       -2.0825149686   -0.1364399716    0.8857075002
H        0.8384182437   -1.0821347129    0.7850101178
H       -1.3010772581    1.6871011016   -0.5541984524
H       -1.7912555291    0.3273827635   -1.6055243887
H       -0.6035534247    1.5169910184   -2.1722936488
H        1.2649320810   -0.6738508624   -2.3298109680
H        2.1932038855   -0.3740744157   -0.8437754502
H        1.7117700242    0.9887790301   -1.8625803058
24   

C       -4.2321398277   -1.0184334071    5.2397837553
C       -4.4227922765   -0.6467882722    3.8945197367
C       -2.0484074718   -1.4872921644    4.7980440886
C       -2.2158736523   -1.1168324591    3.4377671085
C       -1.2022955628   -0.8069492570    1.1327491529
C       -0.0831200804   -0.7225167118    0.3445910135
C       -1.0511098473   -1.1927808280    2.5234116666
C       -0.9490316308    0.9947062992   -1.1926673747
C        1.3969344161    0.0508987016   -1.4444517428
N       -3.0456799502   -1.4429450112    5.7078372727
N       -3.4306764501   -0.6903776466    2.9878254726
N        0.1175053245    0.0964684538   -0.7163210281
O        0.0386603256   -1.5742366286    2.9448449267
H       -5.0742100562   -0.9582803188    5.9190494099
H       -5.4038900070   -0.3125912737    3.5781403225
H       -1.0758840202   -1.8224513015    5.1397927189
H       -2.1488337551   -0.4115500177    0.7929659618
H        0.7926421745   -1.2635903558    0.6956511971
H       -1.3281419443    1.6080841711   -0.3690312165
H       -1.7709842624    0.4114766208   -1.6202159485
H       -0.5675190585    1.6690599923   -1.9658152712
H        1.2837051266   -0.5340662823   -2.3630200971
H        2.1796512759   -0.4090526359   -0.8327515317
H        1.7255133392    1.0626358778   -1.7017995530
24   

C       -4.1910278196   -0.9197454185    5.2363377161
C       -4.4145007197   -0.6940727635    3.8640325418
C       -1.9946535256   -1.3391782377    4.8070332714
C       -2.1950752918   -1.1150118978    3.4196170423
C       -1.2221540780   -0.9951239950    1.0789230888
C       -0.1104440819   -0.8616522626    0.2803462004
C       -1.0389014641   -1.2300990674    2.4984524936
C       -0.9411121413    1.0288001473   -1.0563376742
C        1.3948463291    0.0870320409   -1.4008715846
N       -2.9815080553   -1.2451188143    5.7244531613
N       -3.4328951078   -0.7875671285    2.9497705680
N        0.1101841978    0.0671360986   -0.6809429263
O        0.0735537558   -1.5155193795    2.9360108353
H       -5.0262855612   -0.8261478277    5.9202185490
H       -5.4128888813   -0.4342435691    3.5322652341
H       -1.0041249721   -1.5966871934    5.1640364744
H       -2.1866049554   -0.6547315242    0.7296377289
H        0.7679551969   -1.4145167110    0.6057625501
H       -1.3373379372    1.5289472034   -0.1668222772
H       -1.7552549281    0.5140232155   -1.5765904903
H       -0.5384546634    1.7984869401   -1.7222931533
H        1.2830141749   -0.3940205913   -2.3780462018
H        2.1680991733   -0.4446507628   -0.8371879921
H        1.7354211960    1.1170450267   -1.5452580758
24   

C       -4.1565241781   -0.8108133298    5.2137524348
C       -4.4051074335   -0.7371086432    3.8292966517
C       -1.9466875519   -1.1666270810    4.7954002992
C       -2.1723555283   -1.0950594480    3.3957717641
C       -1.2278250986   -1.1769450052    1.0417766891
C       -0.1363085179   -1.0005074660    0.2132370898
C       -1.0210837146   -1.2459163426    2.4735240764
C       -0.9492708494    1.0297842645   -0.9039726955
C        1.3673247906    0.0945172429   -1.3771031507
N       -2.9274531976   -1.0268567369    5.7136107097
N       -3.4297308774   -0.8769269977    2.9143527599
N        0.0891567358    0.0159717419   -0.6496483034
O        0.1106365539   -1.4230836123    2.9183143251
H       -4.9882002056   -0.6875765631    5.8973028320
H       -5.4182546052   -0.5594799236    3.4881676858
H       -0.9409997549   -1.3390742676    5.1611123461
H       -2.2124904327   -0.9074987301    0.6866154670
H        0.7474674992   -1.5658161708    0.5003302217
H       -1.3438710857    1.4192939346    0.0399665751
H       -1.7672084218    0.5943567734   -1.4868739976
H       -0.5343139897    1.8724465813   -1.4659172048
H        1.2361821941   -0.2659283853   -2.4026047100
H        2.1343514021   -0.5154538269   -0.8893228977
H        1.7283866850    1.1273277367   -1.4034114640
24   

C       -4.1297859555   -0.7228211037    5.1690044066
C       -4.3950040810   -0.8062039324    3.7882607540
C       -1.9052541693   -0.9787868536    4.7545470885
C       -2.1476240478   -1.0648710455    3.3586366062
C       -1.2183900738   -1.3388691455    1.0146078211
C       -0.1552188538   -1.1293624677    0.1424300428
C       -0.9971777362   -1.2357045441    2.4386459039
C       -0.9374928990    1.0226013481   -0.7296965816
C        1.3308564996    0.0748545485   -1.3800345219
N       -2.8848314432   -0.8085885734    5.6689803527
N       -3.4208522120   -0.9768097135    2.8773453495
N        0.0728800027   -0.0445770503   -0.6234618472
O        0.1485329386   -1.2880704234    2.8791929057
H       -4.9616090419   -0.5835139389    5.8492828672
H       -5.4204073845   -0.7280750165    3.4464100633
H       -0.8872951401   -1.0497574241    5.1200501254
H       -2.2231907534   -1.1604573656    0.6581506329
H        0.7283942739   -1.7213847401    0.3688610593
H       -1.2951583667    1.3128478859    0.2634588806
H       -1.7840671226    0.6824409766   -1.3345745751
H       -0.5085671511    1.9117427325   -1.2024701398
H        1.1547780014   -0.1551312581   -2.4359000642
H        2.0876457419   -0.6163732693   -0.9956202333
H        1.7314037190    1.0898615358   -1.2958457001
24   

C       -4.1395133175   -0.9097510238    5.3196896025
C       -4.4542550915   -1.3094042319    4.0062973610
C       -2.1238668723   -0.1347497182    4.5978048518
C       -2.4162074341   -0.5333669833    3.2668664478
C       -1.6524061687   -0.7380593230    0.8556710597
C       -0.5977991070   -0.9828354996   -0.0419927085
C       -1.3905066287   -0.3283084912    2.2149040421
C       -0.2483704602    1.3597700767   -0.6108184951
C        0.9705229804   -0.4926997514   -1.8447793072
N       -2.9749427652   -0.3149910273    5.6310949676
N       -3.6099193011   -1.1256064007    2.9760202069
N       -0.0331895475   -0.0787168568   -0.8505829540
O       -0.2998922063    0.1556677896    2.5055158899
H       -4.8638096606   -1.0913792134    6.1048747032
H       -5.4090788934   -1.7865069245    3.8190769914
H       -1.1700576016    0.3330299598    4.8130385101
H       -2.5795777203   -1.2678386484    0.6871626350
H       -0.4878549282   -2.0189489760   -0.3485197456
H       -1.3166896018    1.5781708845   -0.5150559226
H        0.1385226252    1.9495070854   -1.4476451021
H        0.2672590875    1.6727319731    0.3028610416
H        0.7433286133   -0.0479486325   -2.8186688528
H        0.9815683682   -1.5807158738   -1.9641410048
H        1.9676162537   -0.1717933346   -1.5260758499
24   

C       -4.0864012191   -0.8308004052    5.3035164263
C       -4.4016923369   -1.3390331626    4.0283440904
C       -2.1120445924   -0.0356667221    4.4952331383
C       -2.4053843115   -0.5424428602    3.2014543103
C       -1.6704110245   -0.8971669345    0.8017764989
C       -0.6427459250   -1.0746836508   -0.1276012808
C       -1.4059907922   -0.3667819504    2.1185802547
C       -0.2828948458    1.3211280297   -0.5256157711
C        0.9838149053   -0.4431923162   -1.8308855579
N       -2.9418906354   -0.1713836608    5.5522651609
N       -3.5780157186   -1.2012327456    2.9743728643
N       -0.0356841461   -0.1021281923   -0.8251401556
O       -0.3404368600    0.1935406947    2.3611025700
H       -4.7935405353   -0.9796414624    6.1109215253
H       -5.3402103568   -1.8632562381    3.8915576675
H       -1.1754040343    0.4839904383    4.6612736501
H       -2.5507379746   -1.5166275186    0.7010024691
H       -0.5776249449   -2.0690531387   -0.5594804038
H       -1.3429836417    1.4970179911   -0.3176528037
H       -0.0085835763    1.9437696537   -1.3827483928
H        0.3120866884    1.6376052511    0.3367666416
H        0.8043596831    0.1124038610   -2.7566117227
H        0.9610605709   -1.5113140954   -2.0689936131
H        1.9803664949   -0.1961035938   -1.4505979872
24   

C       -4.0703723811   -0.7897648501    5.2711355113
C       -4.3643972012   -1.3798803718    4.0265655623
C       -2.1193414600    0.0206928851    4.4225997501
C       -2.3916670540   -0.5674528074    3.1587286045
C       -1.6434146842   -1.0349694144    0.7869596276
C       -0.6717114441   -1.1362251631   -0.2011565663
C       -1.3992329374   -0.4120430837    2.0656800810
C       -0.3063398676    1.2885289995   -0.4851703797
C        0.9921889262   -0.4174756838   -1.8290989239
N       -2.9480999557   -0.0816043810    5.4842511290
N       -3.5414053531   -1.2765857977    2.9681387766
N       -0.0237050764   -0.1245103156   -0.8044243313
O       -0.3601874315    0.2055288358    2.2813936776
H       -4.7760043436   -0.9138055693    6.0840306237
H       -5.2859143213   -1.9396117902    3.9178030076
H       -1.2012126047    0.5799837857    4.5608997409
H       -2.4817980675   -1.7153974915    0.7311670093
H       -0.6438888382   -2.0892770594   -0.7212344992
H       -1.3509606007    1.4229162739   -0.1878910040
H       -0.1335467851    1.9183454195   -1.3631879621
H        0.3463215455    1.6342837332    0.3224707702
H        0.8389419907    0.2145514278   -2.7094267096
H        0.9374196868   -1.4618785264   -2.1520991622
H        1.9928394067   -0.2332335311   -1.4247871552
24   

C       -4.0643311177   -0.7850718191    5.2646949879
C       -4.3172691379   -1.4486721354    4.0484852660
C       -2.1369432996    0.0620974525    4.3981927007
C       -2.3687920402   -0.5981252477    3.1619624669
C       -1.5839466990   -1.1410987087    0.8205544347
C       -0.6917623998   -1.1569314940   -0.2359213362
C       -1.3770794820   -0.4434855110    2.0676102065
C       -0.3212408942    1.2827365117   -0.4374763786
C        0.9796295658   -0.3796695663   -1.8268264073
N       -2.9743960777   -0.0220191706    5.4546308395
N       -3.4851708302   -1.3645847901    2.9955259405
N       -0.0133507653   -0.1221979762   -0.7701481082
O       -0.3744738575    0.2368501757    2.2639983851
H       -4.7758763593   -0.8960936244    6.0743093717
H       -5.2143236951   -2.0497675022    3.9573989383
H       -1.2457451531    0.6673096697    4.5180200509
H       -2.3750569111   -1.8778659821    0.8005808314
H       -0.6998628129   -2.0717221094   -0.8213477946
H       -1.3525371643    1.3874022952   -0.0867865840
H       -0.2128083327    1.9162949763   -1.3229951822
H        0.3619840880    1.6491666838    0.3350859512
H        0.8488101051    0.3238071058   -2.6550803865
H        0.8747694132   -1.3921494768   -2.2293238113
H        1.9908561249   -0.2710103079   -1.4215823069
24   

C       -4.0802513599   -0.7797637563    5.2845518640
C       -4.2723509616   -1.5103118541    4.0959561177
C       -2.1776544419    0.1225631181    4.4189293381
C       -2.3491979677   -0.6031097513    3.2096785165
C       -1.4985354885   -1.1997773682    0.9056888591
C       -0.6867210470   -1.1501980025   -0.2079793935
C       -1.3497780076   -0.4371435998    2.1234417667
C       -0.2497547225    1.2842167977   -0.3635868617
C        0.9918160737   -0.3811929367   -1.7937936135
N       -3.0332551332    0.0441154802    5.4611912792
N       -3.4216149000   -1.4329088431    3.0575104045
N        0.0381600647   -0.1236503713   -0.7009454782
O       -0.3945189126    0.3106345235    2.3071754530
H       -4.8045684344   -0.8880214769    6.0831386519
H       -5.1371618117   -2.1581902361    4.0142573448
H       -1.3216989785    0.7785271012    4.5280288245
H       -2.2439465494   -1.9830069592    0.9122222680
H       -0.7390451643   -2.0376659612   -0.8319899788
H       -1.2720492222    1.3979756731    0.0098978645
H       -0.1559718940    1.9163059719   -1.2518086801
H        0.4548349206    1.6456962743    0.3920123851
H        0.8280170258    0.3193053951   -2.6187795612
H        0.8769374346   -1.3953518970   -2.1893344180
H        2.0171411327   -0.2688667621   -1.4269839056
24   

C       -4.1094082243   -0.8451889118    5.2762670234
C       -4.2331912922   -1.6263879181    4.1110974152
C       -2.2482259493    0.1418102165    4.4130968335
C       -2.3521500504   -0.6327181983    3.2264509276
C       -1.4375818495   -1.2360624583    0.9483084519
C       -0.7074214669   -1.1301505869   -0.2149245612
C       -1.3507522965   -0.4327926589    2.1469945195
C       -0.1227074669    1.2774788791   -0.3201442044
C        0.9586044529   -0.4134403028   -1.8363352699
N       -3.1174952764    0.0461544687    5.4425346323
N       -3.3684953852   -1.5323433643    3.0856370572
N        0.0783114649   -0.1372382502   -0.6875251050
O       -0.4528609237    0.3839883830    2.3215149242
H       -4.8422431785   -0.9693136664    6.0647099366
H       -5.0558303655   -2.3278524260    4.0367321623
H       -1.4375837039    0.8542689354    4.5135435323
H       -2.1425438612   -2.0556019572    0.9707216714
H       -0.8188779834   -1.9917392252   -0.8669268931
H       -1.1366854967    1.4446557395    0.0560552486
H        0.0087807983    1.9215682556   -1.1949196720
H        0.6048641727    1.5799750054    0.4396119556
H        0.7075076992    0.2417692724   -2.6765747795
H        0.8569109979   -1.4493843421   -2.1750517455
H        2.0031781220   -0.2498411846   -1.5527714564
24   

C       -4.1610916859   -1.0384336640    5.2441535697
C       -4.0862543970   -1.9025397176    4.1351158961
C       -2.6517491346    0.3524634735    4.2581080912
C       -2.5567398307   -0.5028558047    3.1272710723
C       -1.5270759145   -0.9974824839    0.8717003549
C       -0.7970772749   -0.9363281863   -0.3019619378
C       -1.6409912070   -0.1278209898    2.0157443199
C        0.3772181468    1.2555194124   -0.2984969422
C        0.6943011228   -0.4091359712   -2.1546179577
N       -3.4475853839    0.0978898074    5.3195834295
N       -3.2958309123   -1.6493520277    3.0774496488
N        0.0823792326   -0.0751386148   -0.8552301653
O       -0.9877746575    0.9032367974    2.1186463660
H       -4.8183597477   -1.3025867824    6.0641018642
H       -4.6863409897   -2.8049201459    4.1331455504
H       -2.0612828952    1.2608190755    4.2886830095
H       -2.1367240068   -1.8886483928    0.9241431327
H       -0.9811646210   -1.8191598300   -0.9074505191
H        0.9059349042    1.8693776116   -1.0338423347
H        1.0159561554    1.1665924004    0.5855368248
H       -0.5467742201    1.7859010901   -0.0541185847
H        0.5012146310    0.3888125524   -2.8789107514
H        0.2836783056   -1.3370243021   -2.5651103259
H        1.7754215802   -0.5353566767   -2.0388500149
24   

C       -4.0074255289   -0.9153799956    5.3366427950
C       -3.7832007705   -1.9201997459    4.3757739742
C       -2.9579901349    0.5962936027    3.9962149892
C       -2.7172290719   -0.3996997362    3.0119025287
C       -1.7574556139   -1.0296602556    0.7596176500
C       -1.0039566311   -0.9402337189   -0.3901528568
C       -1.9841780122   -0.0257730684    1.7746067114
C        0.7454100163    0.7197588150    0.1865087736
C        0.3726811740   -0.0398018481   -2.1824454264
N       -3.5995769362    0.3528305689    5.1596628102
N       -3.1446749914   -1.6792614609    3.2171746542
N       -0.0712110578   -0.0422867246   -0.7774563231
O       -1.6251043138    1.1381453205    1.6327209690
H       -4.5271661411   -1.1777504419    6.2504963697
H       -4.1363820201   -2.9246682997    4.5773277069
H       -2.6127662135    1.6090643404    3.8231704332
H       -2.2746711136   -1.9698505478    0.8924208744
H       -1.1830990383   -1.7592313724   -1.0808157372
H        1.7825148245    0.7821899705   -0.1568329593
H        0.7568165056    0.2292540100    1.1647263719
H        0.3580592622    1.7381182039    0.2913686770
H        0.1518631200    0.9293811446   -2.6409536050
H       -0.1388533970   -0.8145520994   -2.7623905588
H        1.4491089623   -0.2292880624   -2.2436838619
24   

C       -3.9779889247   -0.9011043601    5.3082464251
C       -3.6837813785   -1.9395613604    4.4035660152
C       -2.9952045273    0.5969939899    3.9035811384
C       -2.6863101592   -0.4327166654    2.9748122818
C       -1.6850483990   -1.1161754510    0.7567956178
C       -1.0075441760   -0.9746170104   -0.4359365312
C       -1.9688567400   -0.0803336883    1.7229003558
C        0.8101984967    0.5707815917    0.2341363473
C        0.3965183797   -0.0232756338   -2.1818587804
N       -3.6384948182    0.3773837990    5.0708158413
N       -3.0433134740   -1.7224000845    3.2413279739
N       -0.0246743276   -0.1127598080   -0.7730684033
O       -1.6758429179    1.0935346167    1.5188930251
H       -4.4965487352   -1.1451853698    6.2278205385
H       -3.9835957745   -2.9506982349    4.6526216591
H       -2.7066733362    1.6177142073    3.6805654306
H       -2.1603439998   -2.0736934631    0.9192530373
H       -1.2270526957   -1.7517569624   -1.1622924323
H        1.8552428603    0.5948654856   -0.0892394259
H        0.7787149968    0.0449233523    1.1933056628
H        0.4694341128    1.6014760000    0.3740848961
H        0.0951771044    0.9427274118   -2.5995831537
H       -0.0600921663   -0.8157902369   -2.7831841352
H        1.4831672140   -0.1257089633   -2.2644927116
24   

C       -3.9595283931   -0.8557439826    5.3282158335
C       -3.5980834443   -1.9146278991    4.4728544178
C       -3.0232238622    0.6301663298    3.8795299827
C       -2.6488242484   -0.4201020836    2.9993622800
C       -1.5889240426   -1.1393006235    0.8193245903
C       -1.0172925371   -0.9482983975   -0.4253713325
C       -1.9398225760   -0.0829904797    1.7389328737
C        0.8515556364    0.5268268215    0.2534522035
C        0.3847544327    0.0027117370   -2.1741543088
N       -3.6765106968    0.4270236922    5.0441766594
N       -2.9463741518   -1.7139310533    3.3138911412
N        0.0032157822   -0.1335389960   -0.7582619303
O       -1.7101518251    1.0949820819    1.4814892770
H       -4.4847942110   -1.0870761510    6.2472803755
H       -3.8549248011   -2.9281010973    4.7578486081
H       -2.7818485261    1.6539067444    3.6176713341
H       -2.0062717222   -2.1166380583    1.0186075190
H       -1.2944116960   -1.6897161912   -1.1691023354
H        1.8915617831    0.5605554741   -0.0850002135
H        0.8350649586   -0.0219968819    1.2000423088
H        0.5106519215    1.5526848630    0.4246811923
H        0.0571556343    0.9751197158   -2.5558677691
H       -0.0745228868   -0.7813961715   -2.7843644585
H        1.4702992020   -0.0788663741   -2.2879099902
24   

C       -3.9707491144   -0.8505168023    5.3386731306
C       -3.5333257417   -1.9131848345    4.5244054282
C       -3.0766847395    0.6402233764    3.8683754245
C       -2.6277467056   -0.4138381226    3.0288339695
C       -1.4873712244   -1.1348547852    0.8876276936
C       -1.0306995169   -0.9030799689   -0.4034627538
C       -1.9192635627   -0.0760583985    1.7687748210
C        0.8846153719    0.5202623804    0.2307875069
C        0.3630212719   -0.0056719308   -2.1889457769
N       -3.7467254662    0.4366586740    5.0233762063
N       -2.8638283926   -1.7119253998    3.3757074368
N        0.0270637522   -0.1544699043   -0.7631780163
O       -1.7523062193    1.1034343140    1.4713300761
H       -4.5075372808   -1.0825465920    6.2508802595
H       -3.7455704995   -2.9301053215    4.8328686501
H       -2.8838001023    1.6671309997    3.5800210782
H       -1.8351515737   -2.1317388694    1.1205513677
H       -1.3834141475   -1.6092148286   -1.1494711601
H        1.9095606649    0.6010475040   -0.1438930124
H        0.9230857755   -0.0466673106    1.1660786476
H        0.5104071750    1.5283313791    0.4346555047
H        0.0772346954    0.9923832712   -2.5366965555
H       -0.1629738267   -0.7477460578   -2.7978381774
H        1.4373933834   -0.1454438509   -2.3442164649
24   

C       -4.0150749299   -0.8741987098    5.3464484218
C       -3.4928840250   -1.9224649872    4.5640280417
C       -3.1631287342    0.6426089241    3.8776610028
C       -2.6304485278   -0.3968440092    3.0699035804
C       -1.3889933995   -1.0804451659    0.9687662336
C       -1.0378564453   -0.8233023927   -0.3585044527
C       -1.9153736038   -0.0392283091    1.8196601056
C        0.9334219497    0.5337665724    0.1897104401
C        0.3413675627   -0.0337905597   -2.2078858318
N       -3.8547246251    0.4187829829    5.0160911145
N       -2.8010145272   -1.7007240915    3.4324929019
N        0.0577879911   -0.1661547357   -0.7693851303
O       -1.8121155474    1.1408134523    1.4955988048
H       -4.5663699363   -1.1226818299    6.2455773766
H       -3.6570873580   -2.9450931175    4.8827940204
H       -3.0214615141    1.6740033869    3.5759046428
H       -1.6556601352   -2.0951817643    1.2296395919
H       -1.4863736280   -1.4871921521   -1.0917263495
H        1.9240847131    0.6946204620   -0.2465467176
H        1.0675175760   -0.0597023801    1.0995397365
H        0.5085954277    1.5075728097    0.4525486212
H        0.1340399248    0.9898794416   -2.5363710352
H       -0.2791037706   -0.7167832662   -2.7966421454
H        1.3902553379   -0.2711243300   -2.4112718446
24   

C       -4.0763377607   -0.9510850595    5.3574149100
C       -3.4489325927   -1.9579055439    4.5981672276
C       -3.3017032528    0.6225865620    3.9054898525
C       -2.6648758733   -0.3748516883    3.1210654824
C       -1.3085930983   -0.9621513571    1.0583168571
C       -1.0323479562   -0.7064833314   -0.2967186934
C       -1.9521130029    0.0311661123    1.8850022836
C        1.0140373901    0.5438888151    0.1305317656
C        0.3156394506   -0.0753271042   -2.2292639266
N       -4.0076461790    0.3493716674    5.0241973802
N       -2.7414711116   -1.6864418365    3.4873309616
N        0.0921035585   -0.1630569018   -0.7768243905
O       -1.9406215162    1.2099629606    1.5408567149
H       -4.6349024141   -1.2390683504    6.2401269420
H       -3.5430178930   -2.9892636199    4.9172532094
H       -3.2330145661    1.6603247331    3.6000778897
H       -1.4573308592   -1.9930690680    1.3477894738
H       -1.6009191557   -1.3061219349   -1.0015148609
H        1.9519238698    0.7778489862   -0.3826799118
H        1.2550268294   -0.0802302280    0.9968881194
H        0.5629539169    1.4802387706    0.4746275445
H        0.2033251731    0.9612633885   -2.5633521751
H       -0.4037336218   -0.6925296062   -2.7767233850
H        1.3216756660   -0.4269489192   -2.4785264430
24   

C       -3.8459786923   -0.9261531094    5.3568842069
C       -2.9461016283   -1.7534118471    4.6571568289
C       -4.0507559558    0.4018346956    3.5183200675
C       -3.1457245750   -0.4164736260    2.7930423258
C       -1.8982447211   -0.8740691575    0.6325614903
C       -1.3021433039   -0.3520241987   -0.5107160412
C       -2.8067528553   -0.0504125972    1.3965498142
C        0.9575114051   -0.1697265063    0.4189717143
C        0.4000272352    0.7270866273   -1.8943544071
N       -4.4092161773    0.1589750734    4.7978702627
N       -2.5895747939   -1.5132693397    3.3831559151
N       -0.0270937566    0.0595036147   -0.6529545642
O       -3.2925902743    0.9538593565    0.8818835495
H       -4.0896855504   -1.1761049690    6.3826754389
H       -2.5236177165   -2.6134454626    5.1633832130
H       -4.4828942366    1.2702205303    3.0345504210
H       -1.3954600693   -1.6725314312    1.1599927985
H       -2.0036274079    0.0846098444   -1.2176847869
H        1.2272103099   -1.2296902716    0.4638336417
H        0.5511867179    0.1420823484    1.3865465703
H        1.8665224147    0.4119466231    0.2361586515
H        1.0313315776    1.5910907922   -1.6647527036
H       -0.4628971836    1.0854281604   -2.4646644501
H        0.9633390616    0.0270404777   -2.5199452053
24   

C       -3.9507364566   -0.9757952195    5.3483194822
C       -2.9333867453   -1.7095087032    4.7075943324
C       -4.2201629550    0.2848868298    3.4712419198
C       -3.1971732706   -0.4395385138    2.8051846641
C       -1.7983620649   -0.7910668878    0.7179543541
C       -1.2554028616   -0.2463725925   -0.4298881545
C       -2.8383411926   -0.0645586309    1.4161157633
C        1.0814936250   -0.2561709991    0.3249284186
C        0.4147058936    0.7616831008   -1.9076459470
N       -4.6063727348    0.0277479832    4.7398402136
N       -2.5487996696   -1.4550302043    3.4445575520
N        0.0357580774    0.0866061450   -0.6547459977
O       -3.4149840058    0.8648164502    0.8559472245
H       -4.2107716006   -1.2318316245    6.3685850592
H       -2.4408585635   -2.5067688289    5.2518266715
H       -4.7243085700    1.0898866368    2.9490461317
H       -1.2344566253   -1.5259628860    1.2749437454
H       -1.9758540043    0.2301663862   -1.0908914087
H        1.2637327437   -1.3355990882    0.3203758655
H        0.7821878247    0.0568938681    1.3303387032
H        2.0186769650    0.2540075327    0.0810982847
H        1.1363534779    1.5598001017   -1.7076690190
H       -0.4583407669    1.2133646007   -2.3894133525
H        0.8602214425    0.0404673256   -2.6005628397
24   

C       -4.0268563897   -1.0458434544    5.3525522748
C       -2.9124182327   -1.6762224052    4.7653991303
C       -4.3376555413    0.1690378537    3.4521004396
C       -3.2172615983   -0.4515873518    2.8398221755
C       -1.6902465153   -0.6684362830    0.8245126522
C       -1.2055934150   -0.1196954082   -0.3397044608
C       -2.8377482657   -0.0525357718    1.4631490945
C        1.1808695216   -0.3083576727    0.2266166792
C        0.4148164272    0.7712102028   -1.9435941506
N       -4.7526159783   -0.1179150523    4.7050350034
N       -2.4984563198   -1.3914910481    3.5181057535
N        0.0877957243    0.1209706189   -0.6632451466
O       -3.4875674658    0.8033237334    0.8667325665
H       -4.3057905686   -1.3208008112    6.3628507852
H       -2.3674320329   -2.4164776086    5.3393077331
H       -4.8968321343    0.9154606929    2.8997553434
H       -1.0792438220   -1.3488315159    1.4005046763
H       -1.9440014537    0.3756490679   -0.9662257553
H        1.2617422199   -1.4001195139    0.2255605175
H        1.0022303530    0.0416874260    1.2483470789
H        2.1358872221    0.1085086443   -0.1083689725
H        1.2183886723    1.5014304280   -1.8064273702
H       -0.4537142751    1.3019138180   -2.3465296436
H        0.7336533122    0.0199442860   -2.6734777458
24   

C       -4.1020043592   -1.1253111589    5.3346092609
C       -2.9029325992   -1.6437273231    4.8076847746
C       -4.4357222331    0.0490573027    3.4128249962
C       -3.2305479389   -0.4593804371    2.8608534144
C       -1.5919901629   -0.5338276721    0.9257402065
C       -1.1515387412   -0.0024913018   -0.2593363654
C       -2.8262820690   -0.0314188366    1.4999832321
C        1.2482033512   -0.3905733169    0.1312684268
C        0.4143605556    0.7300517958   -1.9916447254
N       -4.8823135084   -0.2747098145    4.6457080168
N       -2.4571797052   -1.3220111417    3.5804688771
N        0.1306334915    0.1237472106   -0.6797407314
O       -3.5314345236    0.7502101273    0.8655036377
H       -4.4028851752   -1.4247610087    6.3315572136
H       -2.3173657582   -2.3258368907    5.4128095765
H       -5.0379547470    0.7350028615    2.8282613444
H       -0.9497719391   -1.1671926994    1.5208380886
H       -1.8986696651    0.5063982572   -0.8641400896
H        1.2195354706   -1.4845211557    0.1631079516
H        1.1940221645    0.0045910623    1.1506998413
H        2.2076457301   -0.0841649468   -0.2972756597
H        1.2818713118    1.3940025791   -1.9253381460
H       -0.4357867048    1.3250837163   -2.3403081231
H        0.6175132602   -0.0530764556   -2.7293516585
24   

C       -4.2876185699   -1.1537676541    5.2364032904
C       -4.3654778291   -0.4344070478    4.0278015872
C       -2.1669721742   -1.7966579558    4.7140628330
C       -2.2217166346   -1.0788094760    3.4903036692
C       -1.0817599591   -0.3640804278    1.3403986046
C       -0.0069655727   -0.4473399251    0.4962869455
C       -1.0405879459   -1.0945406155    2.5940329725
C       -1.1367494043    0.4858141137   -1.4835109911
C        1.3048885566   -0.2126533117   -1.5555608658
N       -3.1902226761   -1.8425787228    5.5944129606
N       -3.3474455698   -0.3880136257    3.1504081482
N        0.0416192895   -0.0866183743   -0.8087986407
O       -0.0342095712   -1.7227769099    2.9156971868
H       -5.1450300808   -1.1496525282    5.8989237194
H       -5.2785092912    0.1012037453    3.7958248176
H       -1.2648794144   -2.3407845323    4.9691802562
H       -1.9844559862    0.1533915282    1.0490636647
H        0.8897441180   -0.9188503800    0.8916677415
H       -1.3798620753    1.4633960710   -1.0547384535
H       -1.9979425541   -0.1818840569   -1.3794332792
H       -0.9413694592    0.6194026349   -2.5521849816
H        1.1161367971   -0.6027122840   -2.5605941733
H        1.9899768070   -0.9028530149   -1.0528747208
H        1.7914914967    0.7648739687   -1.6354833995
24   

C       -4.2752387722   -1.1564972166    5.2388901184
C       -4.3921309351   -0.5143976972    3.9905784667
C       -2.1137192898   -1.6875923065    4.7603167790
C       -2.2075988630   -1.0471696350    3.4965839526
C       -1.1081744482   -0.3966032440    1.3068941756
C       -0.0100437265   -0.4225271490    0.4893267757
C       -1.0238906758   -1.0417877648    2.6034543446
C       -1.0194925101    0.8580499194   -1.3553288843
C        1.3436788615   -0.0572049502   -1.5146170991
N       -3.1373163722   -1.7495530209    5.6392780124
N       -3.3736428864   -0.4517055355    3.1147354856
N        0.1003436170    0.1199367658   -0.7447931056
O        0.0175923050   -1.5871847943    2.9624714233
H       -5.1355404404   -1.1711574762    5.8975027067
H       -5.3368408581   -0.0544712400    3.7254222074
H       -1.1799692637   -2.1565811021    5.0485643180
H       -2.0258349759    0.0857387245    1.0025765110
H        0.8708527737   -0.9387979670    0.8636132489
H       -1.3293236625    1.6845820155   -0.7078743564
H       -1.8686147788    0.1873974762   -1.5221931433
H       -0.7216730308    1.2788264609   -2.3209431050
H        1.1848551914   -0.7785424240   -2.3227135891
H        2.1525893900   -0.4258528067   -0.8756834577
H        1.6643232414    0.8978153954   -1.9425505792
