25   

C       -0.0074655566   -0.0514809989    1.3721811183
C        1.6315915788   -0.6648274863    2.9781618795
C       -0.8734026171   -0.9615825165    1.9780018992
C        1.2903646388    0.0991544980    1.8649608425
C        0.7050389874   -1.5579256265    3.5221317275
C        2.3068155728    1.0640187604    1.3402247223
C        2.8159501457    4.1173449773    0.9010520263
C        2.3039045033   -2.4967857579    5.2192047800
C        2.6577564135    2.9413930586   -0.0577189517
N       -0.5212706841   -1.7061544539    3.0353017566
N        0.9777961612   -2.3617057858    4.6035990490
O        3.4708882056    1.0475621900    1.7330843686
O        1.7633965729    1.9602501259    0.4871598488
H       -0.3516463454    0.5267743448    0.5236333904
H        2.6134594522   -0.5743174748    3.4214781478
H       -1.8744168300   -1.0718908673    1.5773506874
H        1.8408700063    4.5690938977    1.1061925911
H        3.2619850294    3.7855034924    1.8435130510
H        3.4684156723    4.8740258564    0.4557228238
H        3.0481693331   -2.7812737278    4.4678529407
H        2.2796461399   -3.2769791047    5.9866183450
H        2.6033706877   -1.5570145823    5.6946329924
H        3.6388405627    2.5037394852   -0.2741325702
H        2.2469140840    3.3042737399   -1.0050849502
H        0.1980607208   -2.9598432104    4.8526451991
25   

C       -0.0301082919   -0.1273196499    1.2987513219
C        1.6132868913   -0.6612449422    2.9260970329
C       -0.8964299752   -1.0018698915    1.9544747126
C        1.2749854004    0.0322566773    1.7672048216
C        0.6866763836   -1.5209866415    3.5211800059
C        2.2751099011    0.9929847864    1.2060392413
C        2.9095979322    4.0579368851    1.0659688097
C        2.2864573824   -2.3611286506    5.2682097681
C        2.5519462522    3.0160096117    0.0108213042
N       -0.5411922226   -1.6932317612    3.0463381088
N        0.9601142973   -2.2619598935    4.6463958347
O        3.4710514711    0.8975221144    1.4699724422
O        1.6782889778    2.0174135929    0.5575825281
H       -0.3768296453    0.4164604358    0.4287363502
H        2.5956443359   -0.5420335121    3.3615071065
H       -1.9007865738   -1.1264252417    1.5665892420
H        2.0007577271    4.5261656395    1.4553634960
H        3.4555535428    3.5937720629    1.8928285917
H        3.5431745202    4.8318755400    0.6230041797
H        3.0314397757   -2.6841906418    4.5333481964
H        2.2636477519   -3.0988474625    6.0765837090
H        2.5838567129   -1.3964564376    5.6922854590
H        3.4664533230    2.5629297676   -0.3883900189
H        2.0427817330    3.5103842137   -0.8224505695
H        0.1808035578   -2.8455605812    4.9290239646
25   

C       -0.0426274143   -0.2038936226    1.2201743923
C        1.6014939278   -0.6426243889    2.8713682775
C       -0.9026028697   -1.0531955431    1.9163854508
C        1.2641710229   -0.0203196030    1.6729261234
C        0.6822547262   -1.4801268136    3.5080370021
C        2.2388730825    0.9462395074    1.0763455470
C        3.0293258484    3.9798703228    1.2201132606
C        2.2846762111   -2.2094514606    5.3016020477
C        2.4728312264    3.0925613420    0.1111867532
N       -0.5424159018   -1.6889080002    3.0399093288
N        0.9595905087   -2.1576844537    4.6715568661
O        3.4498568165    0.7825022641    1.1974713795
O        1.6224066748    2.0714178149    0.6528364361
H       -0.3934289122    0.3023810583    0.3295069052
H        2.5810113039   -0.4854338344    3.3009735956
H       -1.9063549690   -1.2024180253    1.5357319716
H        2.2100576695    4.4342918147    1.7849894651
H        3.6530528863    3.3945320344    1.9023723006
H        3.6422963393    4.7750859538    0.7859102038
H        3.0367220601   -2.5576977854    4.5856875689
H        2.2682303081   -2.9076672151    6.1444861367
H        2.5677105318   -1.2216221873    5.6796874451
H        3.2976319215    2.6538670697   -0.4617672120
H        1.8872265007    3.7075895641   -0.5793406065
H        0.1862030682   -2.7356369563    4.9808535992
25   

C       -0.0647272149   -0.2936219202    1.1417144897
C        1.5751150576   -0.6201675352    2.8195098734
C       -0.9097043048   -1.1330224930    1.8679589736
C        1.2360438471   -0.0650175702    1.5894988981
C        0.6720846358   -1.4513019779    3.4868242436
C        2.1794534535    0.9113924770    0.9554244961
C        3.1882230130    3.8620780144    1.3373513738
C        2.2766600900   -2.0560192270    5.3243191524
C        2.4201063270    3.1482725904    0.2295893017
N       -0.5429119123   -1.7116197902    3.0197419331
N        0.9566430373   -2.0682629617    4.6818677437
O        3.3836101916    0.6794645483    0.9028512796
O        1.5883533516    2.1112718599    0.7700226404
H       -0.4211591295    0.1689154543    0.2299164507
H        2.5469819100   -0.4162678746    3.2464384657
H       -1.9070116544   -1.3217366081    1.4879221818
H        2.4908475967    4.2828117960    2.0676830072
H        3.8625225639    3.1663750189    1.8456726814
H        3.7848326204    4.6736621979    0.9107001247
H        3.0452334939   -2.4110102455    4.6295855158
H        2.2722628014   -2.7197111383    6.1947982540
H        2.5274469669   -1.0458263974    5.6641292803
H        3.1231088098    2.7434857139   -0.5072870286
H        1.7849089159    3.8729105007   -0.2895152089
H        0.1964004518   -2.6533512905    5.0098340924
25   

C       -0.0998689476   -0.3924673098    1.0660050504
C        1.5073228748   -0.5633423129    2.7973350023
C       -0.9146900830   -1.2555358403    1.7992101574
C        1.1693194218   -0.0679607045    1.5422480382
C        0.6361817084   -1.4240338039    3.4695324161
C        2.0741851249    0.9292091628    0.8797495816
C        3.3492771302    3.7466317571    1.4169308517
C        2.2267363928   -1.8835933810    5.3604002217
C        2.3592110442    3.2216685559    0.3820060063
N       -0.5481796105   -1.7709501936    2.9807359439
N        0.9241077217   -1.9850726385    4.6910229131
O        3.2326653699    0.6386955127    0.5996247999
O        1.5506166020    2.1719013569    0.9327287296
H       -0.4542459671    0.0116746021    0.1262253306
H        2.4547409993   -0.2897766500    3.2392603121
H       -1.8868818833   -1.5182138910    1.3985751494
H        2.8140621258    4.1090697914    2.2994781289
H        4.0435908275    2.9566250311    1.7183931724
H        3.9273896613    4.5718850262    0.9910287699
H        3.0294790619   -2.2093930808    4.6904347195
H        2.2405935618   -2.5274011915    6.2455952561
H        2.4122729488   -0.8535245504    5.6818941121
H        2.9001932516    2.8751770636   -0.5058713382
H        1.7043405225    4.0399075926    0.0662647780
H        0.1912625152   -2.6052292191    5.0170428212
25   

C       -0.0297128495   -0.6282998901    0.9203730053
C        1.4465039748   -0.5115178132    2.7729245118
C       -0.7623959575   -1.5852184513    1.6228724728
C        1.1049630317   -0.0657313930    1.5003941698
C        0.6636610516   -1.4798160373    3.4070091925
C        1.9627876354    0.9576757738    0.8134414703
C        3.5375658616    3.5980536380    1.3189546128
C        2.1920224912   -1.7142142386    5.3880690003
C        2.2967209458    3.2756689799    0.4921260702
N       -0.4210886984   -2.0039946949    2.8496795197
N        0.9478230661   -1.9794818125    4.6556297798
O        2.8966359975    0.6341862552    0.0875975913
O        1.5505995361    2.2105863176    1.0979212205
H       -0.3451836850   -0.3299740321   -0.0714670903
H        2.3200183837   -0.1088047462    3.2645308171
H       -1.6431662806   -2.0110434383    1.1563494043
H        3.2492401170    3.8701648204    2.3387042486
H        4.2085046048    2.7343981485    1.3545317027
H        4.0756236595    4.4375493987    0.8691413087
H        3.0616343956   -1.9415947243    4.7623926392
H        2.2403481547   -2.3476498056    6.2795312634
H        2.2327063943   -0.6677179522    5.7073337487
H        2.5886710963    3.0204147913   -0.5327817518
H        1.6604925321    4.1646879266    0.4384281531
H        0.2876142134   -2.6921045422    4.9463559867
25   

C        0.0682527862   -0.8144362796    0.8179225711
C        1.3754249784   -0.4491834931    2.7559473177
C       -0.5634709638   -1.8586242604    1.4924453771
C        1.0313365455   -0.0455824336    1.4697048514
C        0.7046580648   -1.5158071790    3.3609717282
C        1.8358574251    1.0114430516    0.7719612644
C        3.6529935789    3.4860119024    1.2065521657
C        2.1474665195   -1.5310406199    5.4184326943
C        2.2451522974    3.3381354550    0.6374111335
N       -0.2555037421   -2.1988954429    2.7513759723
N        0.9867575534   -1.9618229615    4.6300633360
O        2.4247784804    0.7614366178   -0.2746134233
O        1.5694971188    2.2396673084    1.2656115009
H       -0.1959917821   -0.5995297459   -0.2102008813
H        2.1583917826    0.0712922908    3.2877720165
H       -1.3286899787   -2.4249485313    0.9743432161
H        3.6063226167    3.6347583782    2.2896268738
H        4.2473482878    2.5923660941    0.9929405621
H        4.1485560480    4.3498235040    0.7540486171
H        3.0691735500   -1.6481464071    4.8386969759
H        2.2329877282   -2.1465197206    6.3196420018
H        2.0362031235   -0.4858930852    5.7249367722
H        2.2938717424    3.2073390797   -0.4493551778
H        1.6811126586    4.2560020217    0.8306652899
H        0.4156292231   -2.7569611716    4.8945994695
25   

C        0.0906898968   -0.8642610643    0.7784130050
C        1.3109634356   -0.3814774233    2.7450938763
C       -0.4743798612   -1.9502936955    1.4454795999
C        0.9698053838   -0.0121552857    1.4471367435
C        0.7112112971   -1.4936554792    3.3426750131
C        1.7132082991    1.0875839118    0.7530705716
C        3.7392703847    3.3967547523    1.1604227934
C        2.0911426844   -1.3742739598    5.4398332335
C        2.2508130370    3.3917585160    0.8249360659
N       -0.1748078122   -2.2555941892    2.7150681964
N        0.9955703580   -1.9081033006    4.6219156634
O        2.0977583725    0.9485218189   -0.4038753511
O        1.6120859241    2.2560960688    1.4249874581
H       -0.1601052915   -0.6811925501   -0.2594752422
H        2.0367743729    0.2021885636    3.2924456909
H       -1.1767059567   -2.5802762665    0.9120164516
H        3.8795773488    3.4081510441    2.2455605119
H        4.2275483264    2.5096259879    0.7455348493
H        4.2137924303    4.2858628031    0.7352021064
H        3.0373983758   -1.4217109317    4.8905790001
H        2.1977954682   -1.9703446818    6.3517707179
H        1.8848652788   -0.3384162737    5.7281245158
H        2.1131800835    3.3986118526   -0.2620462630
H        1.7906465813    4.3037696767    1.2179177129
H        0.4820124416   -2.7436565413    4.8798056090
25   

C        0.1302939850   -0.8858865767    0.7457344352
C        1.2668838117   -0.3354897300    2.7450069431
C       -0.3837516056   -2.0068950250    1.3956970421
C        0.9446829862    0.0132579000    1.4358329513
C        0.7209804150   -1.4844583663    3.3243080286
C        1.6187093045    1.1674762983    0.7636076975
C        3.8087246646    3.3349883526    1.1028178766
C        2.0232147922   -1.2781544341    5.4642966537
C        2.2881197287    3.4245384460    1.0136725635
N       -0.0979914279   -2.2983601947    2.6715256151
N        0.9943000545   -1.8840046106    4.6107259608
O        1.8401837869    1.1499623876   -0.4435142425
O        1.6882116498    2.2482142631    1.5742785240
H       -0.1101089693   -0.7131800850   -0.2965626517
H        1.9379286285    0.2894812555    3.3163129600
H       -1.0335668614   -2.6758449548    0.8434430642
H        4.1172068639    3.2088911860    2.1450316157
H        4.1768904791    2.4880854465    0.5156416479
H        4.2592039154    4.2515724160    0.7111018836
H        2.9891312781   -1.2640964970    4.9484186134
H        2.1367186854   -1.8644987168    6.3816885134
H        1.7394925622   -0.2576338814    5.7412942659
H        1.9833181089    3.5686469802   -0.0288737790
H        1.9458099143    4.2980045196    1.5774278979
H        0.5263912230   -2.7501369549    4.8540802679
25   

C        0.1613047926   -0.9162578038    0.7316112939
C        1.2213561849   -0.3218557174    2.7609736049
C       -0.3128641152   -2.0643679936    1.3639707995
C        0.9256943321    0.0121473110    1.4410200236
C        0.7169130552   -1.4988876430    3.3214915419
C        1.5266111330    1.2178166999    0.7911165458
C        3.8517778402    3.2652695714    0.9855135053
C        1.9340714495   -1.2287452961    5.5047953367
C        2.3422552596    3.4107375695    1.1536322469
N       -0.0428056452   -2.3494302790    2.6444023909
N        0.9719254294   -1.8892662890    4.6145941692
O        1.5978916830    1.3074765070   -0.4311431272
O        1.7815435498    2.2016743472    1.6846133256
H       -0.0713272582   -0.7466311254   -0.3130627415
H        1.8418930805    0.3297790383    3.3588460189
H       -0.9189665386   -2.7591770859    0.7942073626
H        4.3151120046    3.0205572227    1.9460516553
H        4.0818243006    2.4739978049    0.2654332928
H        4.2774095305    4.2036471867    0.6183635012
H        2.9164894953   -1.1627635473    5.0254112555
H        2.0443068810   -1.8078287263    6.4271792821
H        1.5856939530   -0.2249087626    5.7687515829
H        1.8837331961    3.6731872206    0.1936681403
H        2.1354807466    4.2304442985    1.8487982210
H        0.5401202354   -2.7778888815    4.8430317210
25   

C        0.2175936756   -0.9193705078    0.7199973233
C        1.1930840094   -0.3049847980    2.7862085373
C       -0.2266571999   -2.0931319194    1.3260489359
C        0.9360440605    0.0249057155    1.4567222080
C        0.7205372687   -1.5080737667    3.3189473933
C        1.4674248711    1.2804174288    0.8405157902
C        3.8897925021    3.2326020522    0.8514590280
C        1.8439524214   -1.2056480700    5.5483097567
C        2.4320761180    3.3994214031    1.2697805671
N        0.0195855470   -2.3826756256    2.6100264113
N        0.9459743338   -1.8995693495    4.6173080997
O        1.4023712764    1.4687331776   -0.3709686148
O        1.9096351660    2.1599118889    1.7689637425
H       -0.0020571168   -0.7435303279   -0.3265138236
H        1.7597816317    0.3633051332    3.4178911221
H       -0.7908100859   -2.8033874723    0.7327311666
H        4.4866534296    2.8832509187    1.6992937508
H        3.9727268222    2.5101414442    0.0337401798
H        4.2906165804    4.1913449960    0.5098559606
H        2.8398506224   -1.0922963258    5.1071224682
H        1.9447316555   -1.7875789151    6.4699766622
H        1.4419475706   -0.2204559471    5.8062633218
H        1.8411618561    3.7662407118    0.4230151547
H        2.3696484385    4.1526008638    2.0614577976
H        0.5443669172   -2.8076314879    4.8232020737
25   

C       -0.2165154380   -0.1446803978    1.1673233275
C        1.6037171909   -0.9779460576    2.4288019946
C       -1.0725182324   -0.6639043986    2.1367816539
C        1.1663382290   -0.2939569980    1.2958189243
C        0.6809601083   -1.4629029168    3.3604969890
C        2.1228154593    0.2448069853    0.2788622929
C        4.7248486314    1.9348372754   -0.0428595820
C        2.4251567539   -2.2690519140    4.9830311925
C        4.4007572876    0.4708686112   -0.3241221256
N       -0.6293499974   -1.3143361515    3.2199881017
N        1.0438490505   -2.1311036260    4.5058301496
O        1.7210445520    0.8447473694   -0.7142154663
O        3.4125524201   -0.0123886527    0.5971802610
H       -0.6329717597    0.3744759960    0.3120899195
H        2.6571862224   -1.1410615560    2.6025519470
H       -2.1411398310   -0.5345227813    2.0100255383
H        3.8371786172    2.5579603709   -0.1883396358
H        5.0786325089    2.0507832042    0.9859266576
H        5.5068803217    2.2798800772   -0.7254648590
H        2.9028478314   -1.2868294495    5.0627492769
H        3.0033602499   -2.9049329227    4.3047194239
H        2.4306140231   -2.7313534392    5.9752561963
H        5.3107952624   -0.1263695805   -0.2097836900
H        4.0639286433    0.3569135498   -1.3606612750
H        0.2438858614   -2.3941978135    5.0707031333
25   

C       -0.2425493351   -0.1863752070    1.1450499628
C        1.6037034535   -0.9329982818    2.4227966294
C       -1.0816074279   -0.7433334362    2.1084394443
C        1.1442244831   -0.2867055744    1.2766654845
C        0.6969084538   -1.4577184093    3.3485223917
C        2.0854181185    0.3288016418    0.2899209015
C        4.8081304514    1.8121875769    0.0311729110
C        2.4619484611   -2.1584285211    4.9968998136
C        4.3339828396    0.4415982188   -0.4425363231
N       -0.6177104027   -1.3732540113    3.1952128806
N        1.0809947309   -2.0975330673    4.5030462133
O        1.6745345654    1.0582834147   -0.6080843090
O        3.3595006478   -0.0920785284    0.4652459360
H       -0.6747512784    0.3219400373    0.2911359293
H        2.6629320165   -1.0345163401    2.6085630450
H       -2.1539739804   -0.6593101988    1.9752917417
H        3.9752206710    2.5218392939    0.0432797859
H        5.2287157856    1.7370972293    1.0384390151
H        5.5791243510    2.1930125431   -0.6449051543
H        2.8857620273   -1.1516006710    5.0742722417
H        3.0810488328   -2.7675729890    4.3302619889
H        2.4802394985   -2.6123942825    5.9928164875
H        5.1892509843   -0.2402070146   -0.4823897881
H        3.9297426226    0.5177814562   -1.4581799628
H        0.2893369588   -2.3962623625    5.0618819643
25   

C       -0.2615210565   -0.2246429658    1.1179064446
C        1.5968584167   -0.8835585500    2.4247445353
C       -1.0884331724   -0.8221016334    2.0677079654
C        1.1261735148   -0.2730978143    1.2641520783
C        0.7022112350   -1.4512166991    3.3365755563
C        2.0555403988    0.4204452873    0.3194364472
C        4.8767463218    1.6914928270    0.0706163460
C        2.4714072249   -2.0499523316    5.0196803914
C        4.2519412325    0.4525368072   -0.5639540678
N       -0.6122342573   -1.4323529015    3.1606580641
N        1.0984523482   -2.0652924354    4.5008127144
O        1.6424656083    1.2712153855   -0.4632440455
O        3.2908826578   -0.1320214487    0.3264492013
H       -0.7027023990    0.2735921128    0.2627138157
H        2.6578280755   -0.9223010797    2.6247080770
H       -2.1615285428   -0.7849882725    1.9199266563
H        4.1139859526    2.4556133394    0.2491235436
H        5.3494229131    1.4288391792    1.0218195556
H        5.6366287104    2.1083174878   -0.5967287622
H        2.8392833871   -1.0215172189    5.0990228380
H        3.1342229675   -2.6281763091    4.3677144210
H        2.4957051907   -2.4975404322    6.0183573297
H        5.0374089988   -0.2821862045   -0.7668154257
H        3.7950265799    0.7157117028   -1.5244857944
H        0.3135696683   -2.4019899501    5.0475141412
25   

C       -0.2602669043   -0.2714030934    1.0997881895
C        1.5955274571   -0.8465957482    2.4477772817
C       -1.0794791388   -0.9160244056    2.0253638983
C        1.1245164764   -0.2642390156    1.2737204557
C        0.7088825550   -1.4635655128    3.3348922843
C        2.0434978861    0.5074387316    0.3801788917
C        4.9401007980    1.5700564061    0.0801630920
C        2.4598725288   -1.9608021646    5.0683637124
C        4.1602643021    0.5013753331   -0.6800850899
N       -0.5999679527   -1.5113373583    3.1253658548
N        1.1069370573   -2.0593022108    4.5078652928
O        1.6358747234    1.4740880153   -0.2569502729
O        3.2170185075   -0.1383438967    0.1910952182
H       -0.7036728505    0.2193681232    0.2415694112
H        2.6526875213   -0.8255475021    2.6697022150
H       -2.1495341162   -0.9277847071    1.8533685893
H        4.2653864163    2.3540485735    0.4374905049
H        5.4538865133    1.1225141224    0.9363180248
H        5.6852074648    2.0261205363   -0.5781083031
H        2.7640852283   -0.9121392534    5.1525052794
H        3.1753130135   -2.5019228724    4.4406542222
H        2.4794102896   -2.4014687852    6.0702254475
H        4.8582490611   -0.2519983553   -1.0584827808
H        3.6615006984    0.9491971232   -1.5468404859
H        0.3265088515   -2.4373478788    5.0335636623
25   

C       -0.2524869810   -0.3258725580    1.0887046649
C        1.5843951871   -0.8080383827    2.4970110842
C       -1.0658030426   -1.0243061701    1.9800293418
C        1.1230993140   -0.2501357501    1.3081342066
C        0.7039961170   -1.4819231892    3.3481974121
C        2.0296696126    0.5950169907    0.4669097161
C        4.9718237001    1.4721595741    0.0458027490
C        2.4145668426   -1.8805800405    5.1458543732
C        4.0355470491    0.6044359732   -0.7899759108
N       -0.5916702379   -1.6032101890    3.0912789434
N        1.0941104850   -2.0624145030    4.5313826386
O        1.6406615636    1.6656759778    0.0107268676
O        3.1182500865   -0.0962882479    0.0616781194
H       -0.6920071472    0.1527957770    0.2219158576
H        2.6301838511   -0.7248172386    2.7548123872
H       -2.1271970794   -1.0927480731    1.7715077000
H        4.4042466104    2.2354326291    0.5869269795
H        5.5153365848    0.8526640000    0.7656352238
H        5.6953350929    1.9724376672   -0.6043894806
H        2.6490312522   -0.8151205940    5.2415264336
H        3.1870974519   -2.3748208379    4.5478692550
H        2.4212184418   -2.3208886083    6.1480465466
H        4.6269996657   -0.1273143185   -1.3491515364
H        3.5060524111    1.2244488644   -1.5219183860
H        0.3181414013   -2.4879624396    5.0265380710
25   

C       -0.2109989346   -0.3760014827    1.0707712989
C        1.5738987443   -0.7582040912    2.5761807842
C       -1.0256772883   -1.1345281583    1.9106004630
C        1.1409319227   -0.2152010615    1.3706004875
C        0.6925016786   -1.4959040550    3.3715519267
C        2.0469643606    0.6835808577    0.5815031330
C        5.0110699805    1.3653000715   -0.0215960252
C        2.3208623388   -1.8020224627    5.2609264980
C        3.9135058364    0.7328711501   -0.8720026078
N       -0.5770722077   -1.6951402697    3.0419737294
N        1.0541015741   -2.0667511123    4.5684123453
O        1.7318851951    1.8470019520    0.3538506056
O        3.0159077256   -0.0191290977   -0.0433951811
H       -0.6302986432    0.0817159471    0.1832294371
H        2.5971204963   -0.6134650060    2.8905671444
H       -2.0672734751   -1.2686665885    1.6426498160
H        4.5805574909    2.0735476194    0.6929210827
H        5.5552253751    0.5899336072    0.5261780765
H        5.7155602541    1.9028798386   -0.6628553453
H        2.4779301164   -0.7240646702    5.3735671210
H        3.1585830976   -2.2398810851    4.7085135407
H        2.2975021566   -2.2477534552    6.2604688845
H        4.3692307331    0.0568257256   -1.6022383815
H        3.3820352175    1.5095665976   -1.4330957182
H        0.2800792799   -2.5449135884    5.0163659690
25   

C       -0.0828984229   -0.5428520114    0.9685983114
C        1.5730880981   -0.7082871741    2.6583183946
C       -0.8754555510   -1.4066598196    1.7247147920
C        1.1784032318   -0.1785902047    1.4342456214
C        0.7164965584   -1.5617420428    3.3585849190
C        2.0927780181    0.7569022311    0.6967483108
C        5.0798496551    1.1897217408   -0.0760022880
C        2.1969622863   -1.7226212540    5.3828634846
C        3.8335412031    0.8762935946   -0.8980431831
N       -0.4805038987   -1.9101024664    2.9026278454
N        1.0310295290   -2.1097054429    4.5793507189
O        2.0431657584    1.9709220319    0.8618626382
O        2.9135645128    0.0826175792   -0.1352794962
H       -0.4527110054   -0.1589222765    0.0262058404
H        2.5409515028   -0.4533733326    3.0646948834
H       -1.8534693669   -1.6801820622    1.3460306452
H        4.8178021427    1.7842382859    0.8044557526
H        5.5593495691    0.2612649482    0.2482092557
H        5.7901561524    1.7602315032   -0.6814564153
H        2.2260836273   -0.6362615990    5.5184102557
H        3.1217125879   -2.0577539795    4.9019666935
H        2.1364911750   -2.1866369868    6.3724661686
H        4.1249251040    0.3155567730   -1.7917402423
H        3.3661370803    1.8083699327   -1.2350784371
H        0.2812726265   -2.6825701066    4.9507258465
25   

C       -0.1427033176    0.4057818545    1.8791127937
C        1.5950536691   -0.5203387440    3.1958135702
C       -0.9126195500   -0.7161103164    2.1863201792
C        1.1296548116    0.5444761474    2.4313202580
C        0.7666680264   -1.6172057620    3.4475260754
C        2.0642035502    1.6652146493    2.0816458433
C        2.6542611661    3.8746096381   -0.0096643035
C        2.5230316781   -2.9222332022    4.6833051068
C        3.3863642047    2.5848334049    0.3487225290
N       -0.4667706587   -1.7104484759    2.9659534796
N        1.1545938651   -2.6988198556    4.2017537372
O        2.5831213132    2.3491231020    2.9577102571
O        2.4514899346    1.5905213845    0.7904744583
H       -0.5433722985    1.1686464239    1.2237098111
H        2.5958978975   -0.4863181893    3.6019629811
H       -1.9112512498   -0.7906889544    1.7717664993
H        1.9081113093    3.6795618684   -0.7859340309
H        2.1544029173    4.2879516864    0.8717040049
H        3.3665767022    4.6151124914   -0.3848509455
H        3.2301154811   -2.9029063917    3.8472785183
H        2.5916647574   -3.9030845237    5.1644371464
H        2.8012947422   -2.1593434640    5.4176835218
H        4.1448520085    2.7865342318    1.1132690076
H        3.9077895396    2.2095445385   -0.5374069389
H        0.4296562997   -3.4039628593    4.2736900396
25   

C       -0.0597737122    0.3315479292    1.7707382731
C        1.6169818908   -0.5496494558    3.1933458803
C       -0.8523422237   -0.7687242647    2.0974921912
C        1.1903809309    0.4867981722    2.3689902084
C        0.7685879387   -1.6272215901    3.4608343274
C        2.1632637171    1.5647232543    1.9994691637
C        2.6439954836    3.9714334913    0.1066885061
C        2.4676921958   -2.8959241856    4.8086321969
C        3.2869835467    2.5900768735    0.1865040340
N       -0.4471268933   -1.7304836001    2.9378584131
N        1.1181999717   -2.6794572431    4.2731441984
O        2.8836868188    2.0815884752    2.8479492334
O        2.3353237666    1.6271883076    0.6609239646
H       -0.4244818523    1.0646388722    1.0622977107
H        2.6035572147   -0.5095380427    3.6332277660
H       -1.8341133275   -0.8545518146    1.6464511788
H        1.7701253508    3.9414828066   -0.5512016055
H        2.3323000337    4.3059836751    1.1009037873
H        3.3612809960    4.6934072494   -0.2942562400
H        3.2026597736   -2.9134739811    3.9969429449
H        2.5111229905   -3.8586985571    5.3276994679
H        2.7283579321   -2.1083507468    5.5231474490
H        4.1720055227    2.6272042985    0.8313781743
H        3.6228036613    2.2917844802   -0.8115911115
H        0.3851012425   -3.3759611440    4.3460528452
25   

C       -0.0139752348    0.2542802481    1.6789729889
C        1.6311893514   -0.5846201496    3.1663688020
C       -0.8309576211   -0.8124176607    2.0530497282
C        1.2362900203    0.4113282767    2.2778993148
C        0.7581003548   -1.6298159866    3.4789740885
C        2.2366573867    1.4520709803    1.8829800443
C        2.6353501065    4.0491107077    0.2368252742
C        2.4136492349   -2.8544055597    4.9188456154
C        3.1641477930    2.6299539082    0.0511866304
N       -0.4531092861   -1.7372931041    2.9461310331
N        1.0765088127   -2.6437343673    4.3507654022
O        3.0957187854    1.8383881520    2.6705966678
O        2.2153311514    1.6766181279    0.5502564483
H       -0.3594275923    0.9583982594    0.9322985116
H        2.6119445057   -0.5423244244    3.6192480744
H       -1.8099476420   -0.9022659234    1.5967603679
H        1.6752532555    4.1623763950   -0.2757009862
H        2.5018602281    4.2714019012    1.2999873110
H        3.3447955128    4.7684840331   -0.1823320783
H        3.1607716720   -2.9271031268    4.1214297014
H        2.4321099165   -3.7889746610    5.4884770641
H        2.6771200266   -2.0346502152    5.5951313298
H        4.1338802431    2.5249732498    0.5503449342
H        3.3242806807    2.4428953982   -1.0152605213
H        0.3298294189   -3.3224130216    4.4492297463
25   

C        0.0155420318    0.1817971196    1.5963511425
C        1.6473094957   -0.6079978665    3.1289485267
C       -0.8211534769   -0.8468768703    2.0286134924
C        1.2752272714    0.3374285869    2.1769973632
C        0.7531818191   -1.6162807536    3.4981048504
C        2.2928626729    1.3492863493    1.7544323251
C        2.6543747557    4.1146954648    0.3873080120
C        2.3805099901   -2.7851404304    5.0147805725
C        3.0438952578    2.7020268644   -0.0376274544
N       -0.4594571772   -1.7300139379    2.9695397759
N        1.0497609980   -2.5840300876    4.4282425425
O        3.2560474334    1.6230811526    2.4658363688
O        2.1031844690    1.7486963904    0.4769495955
H       -0.3229999596    0.8552602568    0.8187492461
H        2.6258621703   -0.5606469044    3.5861721237
H       -1.8037131674   -0.9403811665    1.5807929302
H        1.6450882831    4.3482610933    0.0351628533
H        2.6835425219    4.2079302030    1.4772479357
H        3.3531956825    4.8383578803   -0.0422069431
H        3.1303807835   -2.9139032958    4.2270696489
H        2.3806171892   -3.6870280641    5.6351247050
H        2.6543071507   -1.9337385209    5.6464132641
H        4.0616733183    2.4781836529    0.3009861956
H        3.0435581621    2.6428984978   -1.1305356649
H        0.2905632110   -3.2424590027    4.5620193691
25   

C        0.0226109548    0.1040435731    1.5172526788
C        1.6517749399   -0.6378501857    3.0786437968
C       -0.8307113882   -0.8828525501    2.0101137595
C        1.2967201392    0.2531015914    2.0689075051
C        0.7394463674   -1.6049964777    3.5082398499
C        2.3240808932    1.2414399867    1.6137058883
C        2.6887268560    4.1446945351    0.5551562440
C        2.3474220736   -2.7096337181    5.0928533498
C        2.9151165179    2.7792365804   -0.0867609912
N       -0.4783584203   -1.7233636370    2.9927295737
N        1.0207406178   -2.5227953266    4.4923266548
O        3.3724920876    1.4092197503    2.2319419971
O        1.9878642539    1.8184027493    0.4385311760
H       -0.3153732224    0.7474148381    0.7143152998
H        2.6311344801   -0.5846335881    3.5334278260
H       -1.8201705448   -0.9772675970    1.5779340683
H        1.6604190152    4.4758014440    0.3816955239
H        2.8718080477    4.0958222697    1.6329117835
H        3.3731286731    4.8783861669    0.1194655321
H        3.0961130450   -2.8983199205    4.3161665612
H        2.3319998769   -3.5717924019    5.7671411312
H        2.6344079129   -1.8258952846    5.6720723189
H        3.9507922318    2.4592932957    0.0736491428
H        2.7630762303    2.8612001497   -1.1675537843
H        0.2499112914   -3.1579605109    4.6660290736
25   

C        0.0015631982    0.0230547815    1.4469851496
C        1.6331767285   -0.6590573192    3.0337092134
C       -0.8619345905   -0.9227758375    1.9991133760
C        1.2886617472    0.1698137672    1.9688291751
C        0.7095745787   -1.5863097275    3.5228999876
C        2.3164778368    1.1413422201    1.4788156812
C        2.7400216775    4.1391125033    0.7286682062
C        2.3081517251   -2.6137258855    5.1680945266
C        2.7782557596    2.8526903924   -0.0905528502
N       -0.5129875396   -1.7159234176    3.0215428510
N        0.9826635742   -2.4481053101    4.5586458469
O        3.4311266992    1.2114342583    1.9911646838
O        1.8634430729    1.8860432065    0.4460764992
H       -0.3382184547    0.6336193332    0.6195655671
H        2.6135894483   -0.5915261573    3.4842539344
H       -1.8576849043   -1.0225869452    1.5828849308
H        1.7246186131    4.5463178090    0.7420557975
H        3.0623453019    3.9478080399    1.7567228338
H        3.4113864412    4.8810359712    0.2866457380
H        3.0537793700   -2.8561493812    4.4034616307
H        2.2843057256   -3.4341570635    5.8923433166
H        2.6054678114   -1.7004264617    5.6937928973
H        3.8002499517    2.4581286848   -0.1162686208
H        2.4892765140    3.0759676437   -1.1223458160
H        0.2046809762   -3.0622747358    4.7715175918
