29

C     -1.09399    1.32386   -1.98644
C     -0.50584    2.39691   -1.30783
C     -0.02778   -0.13462   -0.35080
C      0.57489    0.92455    0.33634
C      0.05542   -1.52723   -0.05502
C     -0.84248    0.03912   -1.48965
C      0.30575    2.18261   -0.17801
C     -0.68709   -2.19107   -1.01032
C      2.15627   -2.62056    0.62070
C      1.45317    0.56410    1.51093
C      1.05892   -0.80383    2.12004
C      0.87019   -1.98911    1.12901
C     -0.94000   -3.65126   -1.20185
N     -1.23154   -1.23921   -1.87776
O      2.30290   -3.81169    0.41534
O      3.14394   -1.72064    0.36924
F      0.85065    3.28100    0.42896
H     -1.71639    1.50130   -2.85938
H     -0.66395    3.41719   -1.64359
H      2.49687    0.53408    1.18222
H      1.38921    1.33106    2.28893
H      1.79478   -1.08250    2.88109
H      0.09894   -0.68439    2.63459
H      0.35674   -2.79959    1.65388
H     -2.00509   -3.89450   -1.10182
H     -0.61232   -3.98777   -2.19284
H     -0.38224   -4.22718   -0.46118
H     -1.82956   -1.46006   -2.66134
H      3.89112   -2.23349    0.00469
