35

C      0.76729   -0.60521   -6.06769
C      2.17777    1.61520   -5.53686
C      1.15665   -0.27976   -4.76464
C      1.77473    1.26883   -6.83822
C      0.78859   -1.19239   -3.62206
C      2.10144   -2.56578   -0.97077
C      0.88257   -0.60804    0.02755
C      1.89756   -3.31259    0.34730
C      0.72608   -1.42759    1.30938
C      0.98711   -1.53214   -1.18710
C      1.79505   -3.04490    2.76464
C      2.47742   -2.21300    3.83846
N      1.86350    0.83414   -4.50661
N      1.07988    0.17783   -7.10997
N      1.83490   -2.37239    1.47212
N      1.19215   -0.75548   -2.40424
O      0.16372   -2.23760   -3.82176
F      3.83696   -2.20220    3.64325
F      2.24690   -2.78447    5.07298
Cl     2.20727    2.31956   -8.16713
H      0.19831   -1.50916   -6.26123
H      2.74970    2.51896   -5.34403
H      3.07015   -2.05320   -0.94708
H      2.10995   -3.27410   -1.80453
H      0.02981    0.06987   -0.08591
H      1.79110    0.00244    0.10735
H      0.97923   -3.92858    0.28502
H      2.73591   -3.99507    0.51498
H      0.70108   -0.75129    2.16960
H     -0.24646   -1.95848    1.29212
H      0.04066   -2.06661   -1.31820
H      2.33914   -3.99192    2.70889
H      0.76983   -3.27367    3.10205
H      2.14629   -1.17226    3.88807
H      1.74874    0.09258   -2.38123
