24

C      2.08908   -1.10977   -0.30088
C      1.00565   -0.37027    1.72273
C      1.02974   -0.44407    0.32427
C      3.10183   -1.65647    1.86050
C      3.10246   -1.70547    0.45618
C      2.03014   -0.97206    2.43963
C      4.17234   -2.30320    2.70184
C      5.26937   -1.58145   -0.46920
C     -0.09569    0.15421   -0.49803
N     -0.65373    1.35590    0.13826
O      4.11491   -2.38462   -0.20341
F      1.99040   -0.89841    3.80134
H      2.13943   -1.18666   -1.38420
H      0.20309    0.14811    2.23605
H      4.88815   -1.56157    3.07569
H      3.73563   -2.79510    3.57486
H      4.71911   -3.04387    2.11565
H      5.98553   -2.22607   -0.98334
H      5.71651   -1.20626    0.46000
H      5.01344   -0.72964   -1.11222
H      0.26823    0.31850   -1.52508
H     -0.90713   -0.58127   -0.57042
H     -1.46603    1.67852   -0.38404
H      0.03323    2.10801    0.11496
