21

C      0.74625   -1.79660    1.17632
C     -0.77072   -0.24811    2.21447
C      0.15751   -1.89458    3.51573
C     -0.11431   -0.69757    1.06062
C      0.86928   -2.40143    2.42122
C     -0.24619   -0.04909   -0.29154
C     -2.29747    0.29942   -2.78535
C     -1.66576    1.28831   -1.80107
N     -0.64257   -0.82811    3.41510
N     -1.37675    0.69298   -0.49562
O      0.62965   -0.18197   -1.14745
Br     2.00457   -3.92286    2.65793
H      1.29090   -2.14317    0.30414
H     -1.40535    0.63604    2.18903
H      0.24330   -2.35903    4.49552
H     -1.62249   -0.54180   -2.96313
H     -3.24758   -0.08936   -2.40249
H     -2.49416    0.79198   -3.74369
H     -2.32362    2.14708   -1.63435
H     -0.72071    1.66315   -2.19823
H     -2.14993    0.56986    0.14460
