21

C      1.56756    0.43343    1.55378
C      0.32389   -0.00381    1.01091
C      1.49141    0.27822    2.92551
C     -0.47605   -0.40805    2.06690
C     -0.21873   -0.49598    4.58747
C     -1.86087   -2.51773    1.94580
C     -1.86369   -0.98637    2.04481
N      0.24768   -0.23526    3.23719
N     -2.60825   -0.42316    0.91155
F     -1.19536   -2.96739    0.80872
H      2.42212    0.81111    1.00719
H      0.03396   -0.04921   -0.02982
H      2.20984    0.49245    3.70558
H     -1.08422    0.12686    4.83906
H     -0.49212   -1.54776    4.72165
H      0.58495   -0.26218    5.28765
H     -1.35866   -2.95082    2.81766
H     -2.88875   -2.89979    1.89636
H     -2.34643   -0.77878    3.01915
H     -2.58783    0.59300    0.96053
H     -3.58278   -0.71727    0.94663
