31

C     -2.36655    5.32164    0.50932
C     -0.69570    3.86222   -0.60553
C     -1.71040   -2.51676    1.75861
C     -1.49364   -1.22244    1.26964
C     -0.16387    2.60259   -0.77496
C      0.33147   -2.06995   -0.10244
C     -2.24511    2.90419    0.96701
C     -1.77383    4.03887    0.29216
C     -0.92329   -3.57962    1.32330
C      0.09832   -3.34765    0.38973
C     -0.46873   -0.99340    0.33450
C     -0.71469    1.51461   -0.04145
C     -0.95796   -5.04155    1.71799
C      0.83508   -4.63543    0.08292
C     -0.14424   -5.72471    0.58954
N     -2.85000    6.36873    0.68629
N     -1.74027    1.67963    0.81290
N     -0.16902    0.26865   -0.22572
H     -0.29582    4.71117   -1.15170
H     -2.50886   -2.67886    2.47957
H     -2.10695   -0.39660    1.59797
H      0.66520    2.44030   -1.45906
H      1.12471   -1.89695   -0.82978
H     -3.07367    2.99701    1.66677
H     -0.46967   -5.18313    2.69201
H     -1.97357   -5.44002    1.80811
H      1.08589   -4.74846   -0.97675
H      1.77950   -4.66834    0.64308
H      0.36608   -6.63315    0.92160
H     -0.82258   -6.00350   -0.22408
H      0.59726    0.24755   -0.88580
