34

C      0.44077   -4.44939  -12.94735
C      3.28690    1.97047   -9.12193
C      4.12877    0.98194   -9.66382
C      2.11170    1.62755   -8.45440
C      3.80792   -0.37261   -9.54374
C      0.15240   -4.76147  -10.44689
C     -0.05365   -4.12602  -11.66052
C     -0.53958   -4.01386   -9.45430
C      1.77207    0.27198   -8.32335
C      2.63396   -0.71241   -8.86781
C     -1.19122   -2.95164  -10.10580
C      0.60208   -1.51970   -7.74888
C     -0.50493   -4.34930   -8.03167
C     -2.13573   -1.91867   -9.58070
C     -1.37446   -2.12526  -12.47066
N      0.84173   -4.70459  -14.01449
N      0.62973   -0.21734   -7.70682
N     -0.47493   -3.60703   -6.97297
N     -0.87669   -3.02336  -11.43499
N     -0.42751   -2.21871   -7.13608
S      1.96721   -2.31104   -8.56842
H      3.55751    3.01777   -9.22605
H      5.03938    1.27152  -10.18071
H      1.45602    2.38435   -8.03370
H      4.45779   -1.13562   -9.96284
H      0.77148   -5.63505  -10.29114
H     -0.47935   -5.41341   -7.79499
H     -1.62637   -0.97006   -9.37542
H     -2.94453   -1.72649  -10.29233
H     -2.57767   -2.25917   -8.64511
H     -2.43378   -2.31224  -12.67262
H     -1.24298   -1.08703  -12.15928
H     -0.80792   -2.29191  -13.38666
H     -0.72164   -1.75303   -6.28391
