32

C      5.09150  -10.41086   -1.00202
C      1.61226   -1.10004   -1.13830
C      1.02788   -0.54254    0.00665
C      5.75927   -8.07079   -0.62297
C      3.41423   -8.61041   -1.00468
C      5.42504   -6.72473   -0.50518
C      3.08850   -7.26371   -0.86190
C      2.17696   -2.37145   -1.08616
C      1.01640   -1.26250    1.19775
C      4.75224   -9.02054   -0.87297
C      4.08819   -6.31442   -0.60257
C      2.17931   -3.10709    0.11041
C      1.59167   -2.53648    1.25703
C      3.79147   -4.83940   -0.55418
C      2.17190   -5.21732    1.31337
C      2.29889   -4.37108    2.57323
N      5.36469  -11.53926   -1.10303
N      2.67879   -4.44500    0.17359
O      4.49922   -4.06113   -1.18778
O      1.51487   -3.18408    2.46867
H      1.62753   -0.54655   -2.07259
H      0.58466    0.44875   -0.02845
H      6.79182   -8.39370   -0.53350
H      2.64435   -9.34537   -1.21829
H      6.19580   -5.97690   -0.34641
H      2.05530   -6.94635   -0.97084
H      2.63219   -2.79948   -1.96986
H      0.57188   -0.86028    2.10336
H      2.74962   -6.13162    1.43330
H      1.12164   -5.48468    1.14974
H      1.92001   -4.90879    3.44533
H      3.35109   -4.10684    2.74178
