32

C      5.61015   -4.45359    4.24736
C      2.05718   -1.21979    0.11282
C      1.16258   -0.16621    0.34362
C      6.67987   -3.47701    2.25683
C      5.05240   -2.17108    3.51502
C      6.84227   -2.41168    1.37550
C      5.20382   -1.12171    2.61346
C      3.42362   -0.96173    0.03191
C      1.63745    1.13712    0.47637
C      5.78054   -3.35975    3.33134
C      6.09108   -1.23936    1.53370
C      3.91957    0.33649    0.22151
C      3.01127    1.39717    0.41109
C      6.36465   -0.09719    0.59597
C      5.55909    1.99446   -0.39761
C      4.80690    2.98663    0.47753
N      5.46970   -5.34159    4.98900
N      5.30133    0.65638    0.13737
O      7.52560    0.17654    0.28931
O      3.39724    2.70901    0.50992
H      1.69231   -2.23398   -0.01900
H      0.09481   -0.35715    0.40284
H      7.24794   -4.39306    2.12818
H      4.37114   -2.08130    4.35530
H      7.55562   -2.47444    0.55974
H      4.62915   -0.21210    2.75223
H      4.11784   -1.76956   -0.17257
H      0.96337    1.97436    0.63164
H      5.21619    2.05104   -1.43628
H      6.63181    2.18210   -0.36762
H      5.20122    2.95175    1.50043
H      4.90008    4.00615    0.09585
