34

C      1.22412   -4.42788  -12.77067
C      3.97187   -0.41027   -9.97224
C      3.65975    0.84263   -9.41710
C      3.24817   -1.55096   -9.62196
C      2.61005    0.97961   -8.50274
C      0.49585   -5.00748  -10.41086
C      0.50350   -4.24237  -11.56672
C     -0.35512   -4.35634   -9.47789
C      2.19577   -1.43377   -8.70416
C      1.88324   -0.16162   -8.16114
C     -0.88546   -3.22442  -10.11367
C      0.48535   -2.06540   -7.45073
C     -0.53802   -4.82124   -8.10562
C     -1.89120   -2.22639   -9.64168
C     -0.66087   -2.13861  -12.36435
N      1.81678   -4.56633  -13.76824
N      1.39694   -2.48325   -8.26721
N     -0.63956   -4.20877   -6.97172
N     -0.35059   -3.15745  -11.37072
N     -0.53613   -2.81743   -6.89943
S      0.49640   -0.30624   -7.08393
H      4.78845   -0.49198  -10.68432
H      4.23657    1.71831   -9.70136
H      3.47852   -2.52456  -10.04430
H      2.36870    1.95018   -8.07882
H      1.08661   -5.89788  -10.24165
H     -0.58874   -5.90395   -7.98230
H     -1.42965   -1.25271   -9.43749
H     -2.67884   -2.07229  -10.38726
H     -2.35681   -2.57154   -8.71963
H     -1.68834   -2.24617  -12.72640
H     -0.53268   -1.14302  -11.93306
H      0.02106   -2.24508  -13.20786
H     -0.81305   -2.51337   -5.97301
