31

C      9.27599    3.93899   -1.09917
C      8.60136    5.15180   -0.81712
C      8.71314    2.72978   -0.73803
C      8.76650   -3.22034   -1.57190
C      7.37982    5.14015   -0.17446
C     10.00065   -3.45715   -2.16965
C      9.75969   -1.50048   -0.19806
C      5.08069    2.76574    1.19667
C      7.45466    2.69084   -0.08324
C      8.62082   -2.22473   -0.58998
C      6.78106    3.91249    0.21004
C     11.12541   -2.71434   -1.79267
C     11.00055   -1.73787   -0.79315
C      6.76615    1.49587    0.33871
C      7.28966   -2.00355    0.02016
N      5.57392    3.93857    0.85904
N      5.60968    1.53599    0.97326
N      6.71497   -0.89513    0.34425
N      7.36150    0.27212    0.09020
Cl    12.65016   -3.03163   -2.57260
Cl    12.37339   -0.80191   -0.25948
H     10.24063    3.95999   -1.59841
H      9.05408    6.09639   -1.10698
H      9.26397    1.81907   -0.95980
H      7.90334   -3.80551   -1.87745
H      6.84616    6.05678    0.05781
H     10.10563   -4.21866   -2.93587
H      9.70410   -0.77773    0.60950
H      4.12569    2.76625    1.72034
H      6.68033   -2.88765    0.20157
H      8.16535    0.26208   -0.52964
