27

C     -0.40563    2.35605   -2.30379
C      3.10159    0.21764    1.63243
C      1.70597    0.18106    1.60909
C      3.84758   -0.96254    1.67873
C      1.77939   -2.24177    1.70826
C     -1.64527    1.99493   -1.72156
C      1.02921   -1.05392    1.63367
C      3.17084   -2.18455    1.72151
C     -1.81658    1.15767   -0.63903
C     -3.75054    1.87635   -1.33868
C     -0.44451   -1.17149    1.62854
C     -5.23323    1.95717   -1.29983
N      0.65615    2.60637   -2.72169
N     -2.90933    2.43747   -2.14106
N     -1.32726   -0.47971    0.99059
N     -0.90809    0.52613    0.16534
O     -3.13864    1.06743   -0.37570
Cl     4.09038   -3.67562    1.79955
H      3.61597    1.17426    1.61832
H      1.14927    1.11274    1.62282
H      4.93242   -0.93812    1.69096
H      1.27643   -3.20368    1.74562
H     -0.87465   -1.97681    2.22177
H     -5.68187    0.96987   -1.45037
H     -5.57904    2.33946   -0.33412
H     -5.56700    2.62736   -2.09252
H      0.05779    0.55236   -0.16314
