31

C     -6.20898    5.61069    4.42652
C     -2.35348   -0.96400    0.50991
C     -1.93405    0.08643   -0.30132
C     -2.74193    1.74989    1.31520
C     -3.96127   -0.70448    3.74850
C     -6.36984    5.27030    3.05788
C     -3.20426    0.69709    2.13176
C     -3.85182    0.63941    3.43081
C     -2.97965   -0.64634    1.71951
C     -2.12870    1.41949    0.11427
C     -5.93279    4.15584    2.37703
C     -7.00436    5.48465    1.01054
C     -4.29435    1.72534    4.30945
C     -7.55353    5.87651   -0.31336
N     -6.09417    5.92061    5.54534
N     -7.05127    6.09698    2.14310
N     -4.88541    2.82807    3.99393
N     -3.45341   -1.47216    2.72651
N     -5.19432    3.04622    2.68063
O     -6.32224    4.26657    1.07787
Br    -1.51150    2.83022   -1.03234
H     -2.18932   -1.99445    0.20607
H     -1.44737   -0.11702   -1.24898
H     -2.85040    2.78531    1.61623
H     -4.38292   -1.16389    4.63309
H     -4.13656    1.60913    5.37997
H     -6.75667    5.95756   -1.05988
H     -8.27777    5.13824   -0.67318
H     -8.04861    6.84274   -0.21198
H     -3.43047   -2.48242    2.71454
H     -5.20285    2.27980    2.00856
