20

C      1.54995   -0.27856    1.59801
C      0.34164   -0.61958    0.97810
C      1.79425   -0.66234    2.91175
C     -0.59228   -1.37632    1.71920
C      0.78929   -1.39162    3.57305
C      0.07539   -0.16388   -0.42126
C      1.04004    0.70509   -2.39400
C     -1.89205   -1.88551    1.17483
N     -0.34322   -1.73359    2.98799
O     -1.01946   -0.12548   -0.95226
O      1.21083    0.22991   -1.03959
Cl     3.29759   -0.23336    3.67348
Cl     0.99569   -1.88923    5.23142
Br    -1.55959   -3.54611    0.12080
H      2.29571    0.28977    1.05496
H      2.04048    0.96957   -2.73437
H      0.38133    1.57603   -2.40884
H      0.61334   -0.08317   -3.01744
H     -2.36949   -1.20281    0.48139
H     -2.54327   -2.18509    1.99124
