27

C     -3.31630    3.38092    1.48343
C      1.96322   -2.52955    1.37000
C      0.78344   -1.87897    1.73018
C      3.11760   -1.79813    1.07267
C      1.89598    0.26438    1.50238
C     -2.36297    3.63876    0.46286
C      0.73082   -0.47443    1.78340
C      3.06886   -0.40508    1.15321
C     -1.17758    2.99560    0.19242
C     -1.48227    4.61545   -1.24265
C     -0.54057    0.16999    2.17610
C     -1.10834    5.45060   -2.41324
N     -4.11790    3.19568    2.31005
N     -2.51949    4.67264   -0.48004
N     -1.08098    1.25468    1.73912
N     -0.45707    1.97518    0.76142
O     -0.59843    3.59456   -0.88284
Cl     4.51532    0.52915    0.81722
H      1.99200   -3.61446    1.32165
H     -0.10704   -2.45642    1.96421
H      4.04004   -2.29725    0.79395
H      1.90980    1.34409    1.60787
H     -1.14354   -0.34323    2.92328
H     -0.15128    5.95526   -2.24594
H     -1.01376    4.83994   -3.31712
H     -1.88559    6.19951   -2.56781
H      0.25893    1.54419    0.17562
