35

C      7.77826   -1.65601    3.63160
C      7.82625   -7.48212    0.49250
C      1.89765    0.88637    1.69862
C      7.03587   -6.38585    0.12418
C      8.71770   -7.36836    1.56430
C      0.60572    0.40529    1.46979
C      2.92839   -0.01575    1.94859
C      7.11392   -5.19110    0.83483
C      8.81249   -6.16609    2.26400
C      0.36262   -0.96987    1.49509
C      2.68758   -1.40298    1.97453
C      7.99348   -5.06830    1.92939
C      1.38084   -1.90087    1.74504
C      3.84646   -2.26724    2.24838
C      5.85095   -2.79329    2.64773
C      8.16108   -3.83730    2.69794
C      7.28520   -2.82487    2.95367
C      1.04016   -3.37081    1.75845
N      8.20035   -0.72088    4.18393
N      5.11540   -1.73786    2.44771
N      3.81365   -3.58711    2.33151
O      5.14802   -3.94371    2.60966
H      7.75702   -8.41387   -0.06246
H      2.10099    1.95352    1.68370
H      6.35998   -6.46317   -0.72289
H      9.34389   -8.21005    1.84667
H     -0.21070    1.09557    1.27316
H      3.93687    0.33893    2.13029
H      6.51186   -4.34629    0.52052
H      9.51466   -6.07542    3.08947
H     -0.64556   -1.33580    1.31695
H      9.15315   -3.69967    3.12371
H      1.61870   -3.92477    1.01321
H      1.27414   -3.82860    2.72405
H     -0.02354   -3.51492    1.55211
