58

C      3.12869  -11.19709   -2.35379
C      3.15033  -11.55875    0.03995
C      3.39287   -7.86380   -1.56419
C      1.77908  -10.87948   -2.29668
C      1.79842  -11.22593    0.10660
C      2.18963   -7.64966   -0.90195
C      2.50714   -7.79469   -5.08934
C      0.96614   -7.44389   -3.00626
C      3.85024   -8.07691   -5.16178
C      7.17511  -12.57667   -0.53504
C      2.17061   -7.68141   -3.69526
C      3.83683  -11.52921   -1.18306
C      3.36828   -7.89812   -2.96330
C      1.11284  -10.86281   -1.06162
C      0.98267   -7.45903   -1.61488
C      7.35573  -11.98851   -1.75017
C      5.26515  -11.81075   -1.24366
C      6.55654   -7.21606   -3.03410
C      9.35392  -10.48566   -2.14680
C      6.54614   -9.13785   -4.64145
C      8.61854  -11.78339   -2.53140
C     -1.83795   -8.92248   -0.24893
C     -0.73322   -9.90144    0.13012
C     -1.36845   -7.90313   -1.28871
C      5.76987   -8.45202   -3.51331
N      6.12016  -11.50179   -2.18631
N      4.39366   -8.13780   -3.88094
O      7.64459   -7.32043   -2.51181
O      5.84251  -12.46972   -0.19477
O      5.99292   -6.00591   -3.24608
O     -0.19666  -10.47020   -1.07605
O     -0.15199   -7.27607   -0.84794
H      3.65282  -11.17420   -3.30406
H      3.68198  -11.82825    0.94725
H      4.30621   -8.02888   -1.00078
H      1.23523  -10.58965   -3.18933
H      1.29050  -11.24601    1.06445
H      2.15186   -7.64582    0.18275
H      1.83962   -7.68688   -5.93445
H      0.04827   -7.26123   -3.55613
H      4.46920   -8.24290   -6.03093
H      7.81594  -13.08044    0.17261
H      8.71433   -9.60610   -2.25586
H     10.23973  -10.34445   -2.77572
H      9.68323  -10.52622   -1.10317
H      6.66245   -8.48992   -5.51546
H      7.54005   -9.38877   -4.27269
H      6.04092  -10.06171   -4.93017
H      9.28332  -12.64051   -2.37782
H      8.36112  -11.76893   -3.59550
H     -2.70478   -9.45595   -0.65682
H     -2.16447   -8.41512    0.66595
H      0.05911   -9.36581    0.66023
H     -1.11801  -10.69719    0.78004
H     -2.12310   -7.12236   -1.43186
H     -1.20725   -8.41127   -2.24038
H      5.74874   -9.15143   -2.67370
H      5.10155   -6.13306   -3.62399
