49

C     -2.02944    4.72428    2.88509
C      1.62961   -1.22552   -0.22589
C     -2.34174    3.38412    2.66172
C      0.52588   -0.68019    0.42846
C     -1.54871    5.14940    4.12951
C      3.71871   -3.05555   -1.42439
C      1.72121   -0.98894    2.51408
C      5.21788   -1.62504   -0.24104
C     -1.67704    2.85069    4.92530
C      4.79806   -3.41893   -2.23093
C      2.78813   -1.65332    0.44389
C      3.92038   -2.13065   -0.39043
C      2.82988   -1.55486    1.86021
C     -2.17196    2.43436    3.68350
C      0.58885   -0.55311    1.82392
C     -1.38066    4.19924    5.13483
C      6.24143   -2.04980   -1.09115
C      3.92420   -2.03662    2.71033
C     -1.69919    0.42208    2.23361
C     -2.92629    0.05406    4.50775
C     -3.94007    0.54423    3.49456
C     -2.50391    0.99691    3.40000
C      7.65712   -1.56173   -0.90096
N      5.12855   -2.31556    4.44763
N      6.03894   -2.93691   -2.08712
N      4.07001   -1.63097    3.99337
N      4.85397   -2.95385    2.37204
N      5.59467   -3.11089    3.48023
N     -0.45812    0.00133    2.60626
O     -2.15101    0.39153    1.08773
Cl    -0.77425    4.70754    6.70870
H     -2.15825    5.45188    2.08789
H      1.60754   -1.29110   -1.31082
H     -2.70839    3.05544    1.69347
H     -0.34942   -0.35340   -0.11577
H     -1.30552    6.19120    4.31281
H      2.74224   -3.50501   -1.58402
H      1.77402   -0.91585    3.59773
H      5.43484   -0.91794    0.55192
H     -1.51476    2.13517    5.72468
H      4.65702   -4.14154   -3.03569
H     -2.99422    0.43872    5.52119
H     -2.60052   -0.97996    4.44005
H     -4.28611   -0.14362    2.72955
H     -4.66924    1.27819    3.82467
H      8.22956   -2.30060   -0.32758
H      8.15089   -1.43301   -1.86851
H      7.68779   -0.61840   -0.34829
H     -0.24660    0.08509    3.59355
