23   

C       -4.8394598817   -6.8729072369   -2.0221284937
C        1.2347104434   -4.8207366764    3.1736931351
C       -3.3355728355   -4.8946904544   -1.4716640763
C        1.0757266801   -5.3672092795    1.9398700073
C       -3.7725521763   -6.5056216490    0.1796504683
C       -4.0130479033   -6.1339507467   -1.1173617748
C       -2.5758945630   -4.3762083332   -0.4440670977
C        0.6971215166   -3.5088216391    3.4436241451
C       -0.1413602961   -3.3644611706    1.3093937851
C       -1.8558197225   -3.1092718631   -0.4969829350
C       -0.8855133087   -2.6259284124    0.3053439557
N       -5.5075030179   -7.4769054162   -2.7604420959
N        0.0167434313   -2.8104620684    2.4726299928
N        0.3830435568   -4.6182218392    0.9895584960
O        0.8350729489   -3.0208988368    4.5519772412
S       -2.7150894799   -5.3748437786    1.0131887469
H        1.7543468464   -5.3328156635    3.9710961554
H       -3.4334601860   -4.4289965010   -2.4468830600
H        1.4780527606   -6.3534879670    1.7199024879
H       -4.1867341170   -7.3928053802    0.6451367077
H       -2.1559848051   -2.4459982292   -1.3020406061
H       -0.6957866036   -1.5600824415    0.2880651971
H        0.2106832029   -4.9592858080    0.0510007025
23   

C       -4.5232502756   -7.0160960954   -1.9709497199
C        1.3106817401   -4.8953978705    3.0976466697
C       -3.1738407547   -4.9317808196   -1.4118557403
C        0.9598308203   -5.4544658120    1.9101344533
C       -3.8241720254   -6.3829762548    0.3167848712
C       -3.8679168521   -6.1551279077   -1.0345415107
C       -2.6029852662   -4.2822133003   -0.3396613593
C        0.9389689225   -3.5288676759    3.3759251630
C       -0.1127615799   -3.3523559010    1.3402666339
C       -1.8925396744   -3.0039293597   -0.3854846690
C       -0.8861604128   -2.5637883956    0.3957690864
N       -5.0509871463   -7.7195752308   -2.7342841638
N        0.2283233810   -2.7886342671    2.4588756619
N        0.2424536879   -4.6628342760    1.0146917442
O        1.2457940522   -3.0300288507    4.4448607653
S       -2.9386796482   -5.1312046546    1.1783009242
H        1.8635892022   -5.4375062857    3.8516124957
H       -3.1236313638   -4.5723842493   -2.4346219096
H        1.2343912030   -6.4822831817    1.6838111563
H       -4.2840655032   -7.2346853083    0.8052392122
H       -2.2063291330   -2.3249117756   -1.1720695171
H       -0.6711306247   -1.5024918708    0.3998553647
H       -0.0755686632   -5.0106364720    0.1172590976
23   

C       -4.2291394312   -7.1186684792   -2.0247245159
C        1.2507893040   -5.1087407887    3.0574335601
C       -3.0406647212   -4.9613266818   -1.3832767003
C        0.7230621487   -5.6367094115    1.9224797057
C       -3.9511533441   -6.3217288166    0.3016891730
C       -3.7646090927   -6.1800823055   -1.0496150819
C       -2.6858893365   -4.2274822960   -0.2751960064
C        1.0477962802   -3.7101539198    3.3499502803
C       -0.1839616188   -3.4383994681    1.4278635329
C       -1.9832621180   -2.9375394695   -0.2452337877
C       -0.9595047789   -2.5737040771    0.5508525503
N       -4.6005958224   -7.8855378147   -2.8183433094
N        0.3244710327   -2.9069085773    2.4979275953
N       -0.0005763387   -4.7816374783    1.0932388319
O        1.5132719468   -3.2379589150    4.3727171391
S       -3.2548784053   -4.9909237914    1.2172852028
H        1.8231973804   -5.6993087422    3.7585604555
H       -2.8142395970   -4.6664150078   -2.4030201489
H        0.8677905077   -6.6883807267    1.6856867737
H       -4.4714470524   -7.1555226475    0.7597344687
H       -2.2993127041   -2.2077849001   -0.9840910685
H       -0.7110567953   -1.5212002825    0.6094699275
H       -0.4473395082   -5.1009943036    0.2407698085
23   

C       -3.9344789055   -7.2299991465   -2.0035041695
C        1.2296306108   -5.2088098236    2.9804527136
C       -2.8995899590   -5.0004519707   -1.3428390895
C        0.5500975920   -5.7241678244    1.9233153139
C       -4.0444485932   -6.2645464752    0.2727594754
C       -3.6475656265   -6.2124667989   -1.0392077638
C       -2.7462589441   -4.1799471092   -0.2514413885
C        1.1646043291   -3.7910173265    3.2415437262
C       -0.2256914538   -3.4730939393    1.4371141919
C       -2.0581094473   -2.8783394278   -0.1748922471
C       -1.0065030573   -2.5665569438    0.6048532534
N       -4.1607197018   -8.0612870322   -2.7867705655
N        0.4258430330   -2.9558719723    2.4344400942
N       -0.1857537155   -4.8370648285    1.1400766363
O        1.7652458786   -3.3291502053    4.1963613611
S       -3.5257722828   -4.8535271342    1.1864923027
H        1.8237190887   -5.8235310465    3.6416100259
H       -2.5106780359   -4.7733365288   -2.3306463561
H        0.5886858299   -6.7901342537    1.7105346223
H       -4.6171263195   -7.0786970148    0.7030328129
H       -2.4054347066   -2.1092098287   -0.8576988301
H       -0.7236463765   -1.5235821294    0.6780848801
H       -0.7384797945   -5.1426428881    0.3462809343
23   

C       -3.6713902093   -7.2722864656   -1.9718571612
C        1.2151575859   -5.2215333399    2.9359386169
C       -2.7765390183   -4.9948424775   -1.2708717584
C        0.3888269762   -5.7329086545    1.9870786916
C       -4.1778957755   -6.1833862785    0.1923769371
C       -3.5603306538   -6.1986238198   -1.0324533062
C       -2.8224693223   -4.1126633279   -0.2195892088
C        1.2739947107   -3.7927262206    3.1281930761
C       -0.2797246182   -3.4547872787    1.4649257517
C       -2.1545817800   -2.8016113928   -0.0838936948
C       -1.0762537401   -2.5252193828    0.6711194538
N       -3.7548744623   -8.1495261168   -2.7328205803
N        0.5098181356   -2.9433091362    2.3607053404
N       -0.3690071406   -4.8307079412    1.2430367183
O        2.0072141318   -3.3328158036    3.9865292839
S       -3.8318803582   -4.7161108756    1.0996088749
H        1.8375221640   -5.8473466384    3.5595879289
H       -2.2197083587   -4.8174487059   -2.1860898858
H        0.3326294606   -6.8072208140    1.8266694318
H       -4.8128005924   -6.9806474950    0.5630559153
H       -2.5579200073   -1.9903887274   -0.6820148340
H       -0.7698039496   -1.4889637363    0.7465487471
H       -1.0173369458   -5.1304056178    0.5224598999
23   

C       -3.4690759071   -7.3208124857   -1.9296749718
C        1.2385737278   -5.2508994989    2.8739577736
C       -2.6725533988   -5.0250371743   -1.1718906399
C        0.2733895293   -5.7558816284    2.0627009867
C       -4.3518876235   -6.1233438586    0.0484819471
C       -3.5134984282   -6.2055589359   -1.0342353492
C       -2.8957445726   -4.0950196936   -0.1864710050
C        1.4070404634   -3.8212413445    2.9683979960
C       -0.3105422093   -3.4698113638    1.4769766035
C       -2.2448063262   -2.7825088333    0.0095313721
C       -1.1350841041   -2.5282283785    0.7258710696
N       -3.4277080011   -8.2322433245   -2.6529215502
N        0.6095677575   -2.9655704538    2.2431970267
N       -0.5131036059   -4.8463506441    1.3580730565
O        2.2661683656   -3.3655071139    3.7033591778
S       -4.1514637302   -4.6191689634    0.9393802531
H        1.8930346040   -5.8823762314    3.4577562819
H       -1.9514431265   -4.8955484506   -1.9737039322
H        0.1331851944   -6.8310791757    1.9772469817
H       -5.0635030850   -6.8933923519    0.3257306047
H       -2.7240457560   -1.9340917464   -0.4691257003
H       -0.8132420622   -1.4960667240    0.7944449567
H       -1.2540425737   -5.1412509803    0.7308865225
23   

C       -3.7541288732   -7.7370831663   -0.6879526477
C        1.0828023954   -4.9745560891    3.3243993719
C       -2.5894590470   -5.4736829018   -0.6759292652
C       -0.0762184651   -5.4522166750    2.8014103528
C       -4.7056441427   -5.6862926537    0.3193679880
C       -3.7061378883   -6.3480469571   -0.3475892278
C       -2.7725535376   -4.1859538662   -0.2321593216
C        1.6355127394   -3.7441092552    2.8132588678
C       -0.1001671657   -3.5277919580    1.3167239998
C       -1.8844894846   -3.0202834267   -0.3997262297
C       -0.7333249351   -2.7612427496    0.2483604353
N       -3.7917828467   -8.8692786508   -0.9566801776
N        1.0077514270   -3.0534035155    1.8021138416
N       -0.6752967469   -4.7108777930    1.7843199218
O        2.6723703689   -3.3099864697    3.2849290817
S       -4.3291250619   -3.9867280557    0.5772593183
H        1.6143178111   -5.4835338052    4.1158226795
H       -1.7114861692   -5.8052333104   -1.2230510204
H       -0.5064946928   -6.3793611975    3.1732450113
H       -5.6279875568   -6.1524044050    0.6483815738
H       -2.2323793202   -2.2558703128   -1.0876906297
H       -0.1993745845   -1.8613161673   -0.0323593409
H       -1.5372103401   -5.0024344256    1.3356550564
23   

C       -3.6022619092   -7.7546229038   -0.5846509822
C        1.0917193992   -5.0331876400    3.2831222112
C       -2.5249155558   -5.4493830146   -0.5191816932
C       -0.1558830236   -5.4022324675    2.8924813435
C       -4.7898112566   -5.6795371016    0.0546391622
C       -3.6603724863   -6.3442828913   -0.3498942408
C       -2.8244022789   -4.1413877275   -0.2150606391
C        1.7081488037   -3.8760618896    2.6817340568
C       -0.1388470340   -3.5204632128    1.3549124085
C       -1.9631928950   -2.9534870915   -0.3040592833
C       -0.7985019569   -2.7169289226    0.3317428923
N       -3.5561895715   -8.9037496329   -0.7661296391
N        1.0520475593   -3.1475269141    1.7163083449
N       -0.7792206537   -4.6262326447    1.9163824614
O        2.8257537825   -3.5396891370    3.0335847437
S       -4.5173967053   -3.9520938447    0.2504343337
H        1.6482286763   -5.5762463059    4.0336835540
H       -1.5490278598   -5.7813841313   -0.8625278176
H       -0.6352073828   -6.2728898221    3.3343290533
H       -5.7461080922   -6.1595738225    0.2312268730
H       -2.3509574677   -2.1360000722   -0.9040780940
H       -0.2625365576   -1.8155263509    0.0597265459
H       -1.7043982175   -4.8416994300    1.5602421428
23   

C       -3.4684955553   -7.7665267729   -0.4731490701
C        1.0846937301   -5.0784509568    3.2439227951
C       -2.4823082770   -5.4226054995   -0.3641021240
C       -0.2248926240   -5.3363868961    2.9909565845
C       -4.8080039510   -5.7024322026   -0.2111151207
C       -3.6060563259   -6.3475069266   -0.3507939840
C       -2.8655498282   -4.1085318843   -0.2097524275
C        1.7397072424   -3.9961141262    2.5508789423
C       -0.1906006311   -3.5003929543    1.4002698766
C       -2.0469325253   -2.8938293911   -0.2077348503
C       -0.8758102927   -2.6647782064    0.4223335443
N       -3.3605130532   -8.9224012717   -0.5622692323
N        1.0584871023   -3.2302521030    1.6329166415
N       -0.8712203425   -4.5250254610    2.0593941939
O        2.9133794260   -3.7592061774    2.7794876101
S       -4.6211746151   -3.9574602900   -0.0846854274
H        1.6631040631   -5.6566654662    3.9504124449
H       -1.4520049888   -5.7405465256   -0.4983028159
H       -0.7338359466   -6.1494455117    3.5038019735
H       -5.7677365507   -6.2065560976   -0.1842161750
H       -2.4662633191   -2.0462657067   -0.7410784759
H       -0.3449523818   -1.7567202729    0.1630145553
H       -1.8412742935   -4.6649842109    1.7977444243
23   

C       -3.3754979803   -7.7452532684   -0.3894050000
C        1.0739035625   -5.1361017821    3.2275890302
C       -2.4412403317   -5.3836753447   -0.2239680427
C       -0.2723238106   -5.2706358484    3.1038689607
C       -4.7521023599   -5.6922723014   -0.4968067444
C       -3.5419408170   -6.3241526472   -0.3731243579
C       -2.8520739020   -4.0671543493   -0.2180395087
C        1.7600282743   -4.1328717164    2.4503542691
C       -0.2129376059   -3.4798261845    1.4642232732
C       -2.0786683971   -2.8324699897   -0.1094899704
C       -0.9083155720   -2.6098224394    0.5268110390
N       -3.2465308655   -8.9024685823   -0.3920235972
N        1.0713636069   -3.3234087565    1.5763193193
N       -0.9244256332   -4.4166666394    2.2152769286
O        2.9667963260   -4.0052801313    2.5651959921
S       -4.6019016916   -3.9408552723   -0.4313915065
H        1.6592626619   -5.7561406337    3.8916669620
H       -1.4040762266   -5.6977539415   -0.1480383513
H       -0.8047444292   -6.0224354215    3.6822434146
H       -5.6967213694   -6.2094689182   -0.6230845609
H       -2.5167037050   -1.9643473668   -0.5923011212
H       -0.3787222562   -1.6955875085    0.2880235083
H       -1.9227879881   -4.4703869917    2.0452276338
23   

C       -3.3553982242   -7.7594187542   -0.2890119703
C        1.1117612918   -5.1252536253    3.1653733554
C       -2.4615479542   -5.3848054074   -0.0935134659
C       -0.2457498200   -5.1815369219    3.1770969035
C       -4.6910596923   -5.7275295950   -0.7428094212
C       -3.5209120726   -6.3410058990   -0.3796790555
C       -2.8626177378   -4.0713657039   -0.2335140624
C        1.7749034219   -4.1828433642    2.2971315421
C       -0.2440008866   -3.4431216797    1.4822015595
C       -2.1511503952   -2.8123542944   -0.0390065839
C       -0.9804318030   -2.5647851851    0.5881849028
N       -3.2286699458   -8.9138730741   -0.2047142552
N        1.0514477116   -3.3577824199    1.4670043540
N       -0.9325719017   -4.3119306230    2.3304861460
O        2.9922648308   -4.1221574762    2.2944289222
S       -4.5518218422   -3.9746427082   -0.7472326543
H        1.7231868886   -5.7634137853    3.7875314406
H       -1.4560141977   -5.6950111554    0.1730849570
H       -0.7603986661   -5.8858979031    3.8269153682
H       -5.6006244881   -6.2585176880   -1.0002707941
H       -2.6229816311   -1.9418890888   -0.4842504414
H       -0.4781081758   -1.6328129195    0.3599961850
H       -1.9443948035   -4.3044142984    2.2664389770
23   

C       -4.2481268006   -7.2416909148    1.0215343395
C        1.1292304585   -4.9929086689    3.1394696767
C       -2.8716326808   -5.1600315869    0.5250979608
C        0.8215590683   -5.5729139715    1.9497474515
C       -4.6220758864   -5.7571319516   -0.9207047321
C       -3.9436657994   -6.0962147941    0.2198172149
C       -2.7604361569   -4.1385743421   -0.3980093149
C        0.8120133516   -3.6016144045    3.3538792616
C       -0.1227809421   -3.4462111445    1.2599335325
C       -1.8372076573   -3.0165727477   -0.5262728872
C       -0.7948012423   -2.6493256930    0.2501564303
N       -4.4903725390   -8.1817705644    1.6647032983
N        0.1811589013   -2.8632935249    2.3792037690
N        0.1988613321   -4.7772609867    0.9882676072
O        1.1023341510   -3.0759109291    4.4145055323
S       -3.9857467312   -4.2969275306   -1.6640925942
H        1.6100506459   -5.5356221800    3.9410411942
H       -2.2605945273   -5.2635953971    1.4145426920
H        1.0575060704   -6.6199259743    1.7725647179
H       -5.4568207399   -6.3209674337   -1.3214964796
H       -2.0578872283   -2.3307054121   -1.3382846283
H       -0.4642312520   -1.6196999645    0.1946447144
H       -0.0667396804   -5.1356243357    0.0780995017
23   

C       -4.3451895371   -7.2069803204    1.0164139695
C        1.1405255224   -5.1468825558    3.1486258007
C       -2.9887915372   -5.0920913774    0.6121712844
C        0.6661910191   -5.7006902026    2.0021255696
C       -4.4345716324   -5.8724217452   -1.0643300073
C       -3.9517303040   -6.1016171341    0.1973458162
C       -2.7571932226   -4.1329223614   -0.3532039301
C        0.9671050474   -3.7329709995    3.3777204148
C       -0.1510200636   -3.5001630002    1.3819832175
C       -1.8789630934   -2.9677805115   -0.3733213505
C       -0.8476421005   -2.6432061208    0.4367715884
N       -4.6590730555   -8.1146818805    1.6748095492
N        0.3098100430   -2.9447566836    2.4612771279
N        0.0234980753   -4.8556612880    1.0979156797
O        1.4028895100   -3.2320617577    4.3998966992
S       -3.7386640540   -4.4315157192   -1.7934055106
H        1.6496520868   -5.7275631685    3.9047809537
H       -2.5324825217   -5.0951194329    1.5971445444
H        0.7900945436   -6.7649502209    1.8143835774
H       -5.1636198740   -6.5039290749   -1.5595374931
H       -2.0998843759   -2.2368309016   -1.1449974798
H       -0.5279481864   -1.6084942449    0.4490000752
H       -0.3740964967   -5.1938027496    0.2287034618
23   

C       -4.4305913434   -7.1529952776    1.0102603737
C        1.1752625787   -5.1973313366    3.1117396302
C       -3.0935323135   -5.0179580772    0.6481615753
C        0.5607148159   -5.7427064362    2.0297851340
C       -4.2294016021   -5.9874382985   -1.1628367552
C       -3.9456928853   -6.0982334067    0.1736929698
C       -2.7394096104   -4.1317516525   -0.3474070289
C        1.1098971804   -3.7711948777    3.3195834401
C       -0.1702492498   -3.5063949926    1.4268002193
C       -1.9239268504   -2.9207490960   -0.2930981808
C       -0.8934295161   -2.6200102662    0.5264911410
N       -4.8184682051   -8.0195160976    1.6844112131
N        0.4213612607   -2.9610021846    2.4461164188
N       -0.1112858701   -4.8766453345    1.1681342405
O        1.6669053672   -3.2786831137    4.2854670663
S       -3.4717717982   -4.5776498242   -1.8927720595
H        1.7175381265   -5.7938642273    3.8315861004
H       -2.7918285316   -4.9183843052    1.6869978757
H        0.5999724260   -6.8162098901    1.8587831998
H       -4.8515483107   -6.6860221544   -1.7111599674
H       -2.1675702304   -2.1615442243   -1.0298907898
H       -0.5799678294   -1.5841385234    0.5714875804
H       -0.6176808657   -5.2066050663    0.3537511716
23   

C       -4.5608080558   -7.1285785380    0.9419707099
C        1.2274070171   -5.2078969899    3.0981365789
C       -3.2334060344   -4.9750175438    0.6618855109
C        0.4572946722   -5.7571556642    2.1230523477
C       -4.0117478651   -6.1047481584   -1.2429361460
C       -3.9624353097   -6.1157198396    0.1273666895
C       -2.7324729784   -4.1487683126   -0.3200279454
C        1.2729886587   -3.7731341685    3.2401628602
C       -0.1955080554   -3.5046207142    1.4888223822
C       -1.9857242357   -2.8952032933   -0.1915814842
C       -0.9538577988   -2.6053614509    0.6283814100
N       -5.0405593736   -7.9602417447    1.6006227191
N        0.5407576750   -2.9574054327    2.4084963389
N       -0.2569700713   -4.8861611569    1.3014284087
O        1.9672469630   -3.2772617362    4.1108015470
S       -3.1736585108   -4.7198408442   -1.9324735004
H        1.8139174036   -5.8073805135    3.7797843967
H       -3.1142352574   -4.7911550211    1.7261302346
H        0.4105538319   -6.8371780278    2.0027857387
H       -4.5122435488   -6.8604591022   -1.8382148475
H       -2.2654413434   -2.1109529598   -0.8882671722
H       -0.6477762369   -1.5679296321    0.6890547788
H       -0.8711905983   -5.2157502756    0.5644290343
23   

C       -4.6771224703   -7.1515823431    0.8450590486
C        1.2674589263   -5.1200420522    3.0655365563
C       -3.4030798713   -4.9573501548    0.6419725328
C        0.3686800299   -5.6886557211    2.2204465983
C       -3.7597038759   -6.2644800783   -1.2754078140
C       -3.9724511680   -6.1717250238    0.0763832078
C       -2.7580089119   -4.1824417872   -0.2941928628
C        1.3853010176   -3.6831484483    3.1107490979
C       -0.2590793244   -3.4488237924    1.5171954880
C       -2.1036579184   -2.8780463272   -0.1179319999
C       -1.0712571609   -2.5638417472    0.6896178942
N       -5.2432013132   -7.9551882937    1.4690141730
N        0.5965543389   -2.8841482280    2.3152877241
N       -0.4003125195   -4.8347213092    1.4311833100
O        2.1945298090   -3.1701564035    3.8643896978
S       -2.8593936173   -4.8914002593   -1.9084360583
H        1.9048872062   -5.7054044711    3.7128332704
H       -3.4918784200   -4.6885625104    1.6909431860
H        0.2655366121   -6.7704458927    2.1744201303
H       -4.1085975438   -7.0873461154   -1.8896450721
H       -2.4519741270   -2.0854946000   -0.7730703363
H       -0.7916389233   -1.5187891584    0.7484262220
H       -1.1026082223   -5.1781508280    0.7846112186
23   

C       -4.8021106084   -7.1376791691    0.7149447174
C        1.3288757424   -5.0774986926    3.0190612091
C       -3.5629973988   -4.9164579333    0.6134062142
C        0.3068920036   -5.6373196139    2.3210849812
C       -3.4961981850   -6.3591915712   -1.2381008740
C       -3.9791104143   -6.1855070371    0.0340553653
C       -2.7661642862   -4.1809535933   -0.2308747392
C        1.5272690046   -3.6499355116    2.9604393737
C       -0.2776406241   -3.4066479628    1.5525576565
C       -2.1811597213   -2.8446548457   -0.0123259082
C       -1.1349829466   -2.5214048686    0.7707805541
N       -5.4649295458   -7.9174198635    1.2700791237
N        0.6932347666   -2.8504204452    2.2129728994
N       -0.5037371904   -4.7841521172    1.5741186860
O        2.4475503615   -3.1456084135    3.5807194708
S       -2.5189529916   -4.9983014192   -1.7763884147
H        2.0068434667   -5.6631624574    3.6234410760
H       -3.8617187154   -4.5850142015    1.6038676710
H        0.1412259053   -6.7117463294    2.3550701499
H       -3.6955074217   -7.2327276555   -1.8491961509
H       -2.6128322031   -2.0379909851   -0.5967930545
H       -0.8657909563   -1.4735689251    0.8286761009
H       -1.2918076992   -5.1212769730    1.0314478517
23   

C       -4.9085741028   -7.1296489866    0.5620937407
C        1.3786716324   -5.0749553183    2.9588587046
C       -3.7145291590   -4.8816015735    0.5658232904
C        0.2453211867   -5.6025305186    2.4279171763
C       -3.2479423355   -6.4319954058   -1.1355179686
C       -3.9824595022   -6.1955526571   -0.0012447781
C       -2.7823596848   -4.1728936296   -0.1513889512
C        1.6570843409   -3.6708175977    2.7796328781
C       -0.2880135174   -3.3865400837    1.5822622107
C       -2.2549737479   -2.8167435636    0.1081130942
C       -1.1828331683   -2.4930368062    0.8531899286
N       -5.6556743627   -7.8935818443    1.0244246557
N        0.7878676800   -2.8602568251    2.0857090625
N       -0.5961264520   -4.7408900081    1.7265974997
O        2.6782163735   -3.1970631715    3.2474017424
S       -2.2062978526   -5.0771366692   -1.5547680418
H        2.0881217412   -5.6696307640    3.5164842541
H       -4.2063249131   -4.5043028982    1.4577084172
H        0.0178241587   -6.6585448606    2.5547617315
H       -3.3028878703   -7.3469828470   -1.7151884350
H       -2.7872437457   -1.9976614767   -0.3655840110
H       -0.9125729889   -1.4453175167    0.9069160968
H       -1.4618971912   -5.0548977359    1.3009694782
23   

C       -5.0120338131   -7.1111436005    0.3759722517
C        1.4319683544   -5.0596345288    2.9119857609
C       -3.8395716203   -4.8549817108    0.4941284008
C        0.2158529010   -5.5478296145    2.5550679532
C       -3.0578067753   -6.4835577693   -1.0072468516
C       -3.9952214620   -6.1976693331   -0.0473748760
C       -2.7893796781   -4.1723635583   -0.0686024057
C        1.7649527944   -3.6908817241    2.5996636957
C       -0.2875308028   -3.3645763626    1.6119510921
C       -2.3132658330   -2.8046981986    0.2249111366
C       -1.2142037863   -2.4712279298    0.9249885105
N       -5.8342138379   -7.8572970825    0.7264846947
N        0.8664486740   -2.8741763025    1.9514404927
N       -0.6536626151   -4.6824180636    1.8940950383
O        2.8599128213   -3.2542765799    2.9099995072
S       -1.9545516403   -5.1419693993   -1.2877229340
H        2.1685668831   -5.6604222442    3.4261797624
H       -4.4900082652   -4.4414560675    1.2590360124
H       -0.0534150090   -6.5765197956    2.7838181624
H       -3.0012094489   -7.4265073480   -1.5399530464
H       -2.9345625308   -1.9900010153   -0.1339370873
H       -0.9426570205   -1.4232160028    0.9618912223
H       -1.5760483269   -4.9705042657    1.5849148993
23   

C       -5.8349221432   -6.1548219345    0.4978752569
C        0.9829611601   -5.0683754095    3.3132564262
C       -4.0805507456   -4.3326850754    0.2144114976
C       -0.3533730529   -5.2120137251    3.1171000958
C       -3.5489335227   -6.5460479546   -0.3662818409
C       -4.5257966299   -5.7161071655    0.1220047890
C       -2.7808332314   -4.1613058387   -0.1969907950
C        1.7142799844   -4.1017955339    2.5300402351
C       -0.1992232708   -3.4882481582    1.4110966999
C       -1.9946726664   -2.9152065596   -0.2496634384
C       -0.8463385153   -2.6578933702    0.4031810305
N       -6.8977362991   -6.5124046651    0.8113897190
N        1.0766340854   -3.3243701961    1.5900033170
N       -0.9500752806   -4.4041719278    2.1510617238
O        2.9154414279   -3.9797991076    2.6976599858
S       -2.0576197916   -5.6857778425   -0.7279831476
H        1.5273768816   -5.6546083117    4.0398201308
H       -4.7152539276   -3.5259700240    0.5679082157
H       -0.9209534103   -5.9345307301    3.6992261726
H       -3.6767722779   -7.6120780833   -0.5185087981
H       -2.4159187790   -2.1045384409   -0.8359985156
H       -0.2978406087   -1.7654343310    0.1278010261
H       -1.9377013856   -4.4636688108    1.9273422181
23   

C       -5.8964287056   -6.1723351137    0.1927413962
C        1.1136094680   -5.0191946625    3.2643811974
C       -4.1349359169   -4.3387818612    0.0778744917
C       -0.2426081954   -5.0804116639    3.2164930118
C       -3.4977203017   -6.5737348196   -0.2652225656
C       -4.5473918338   -5.7335506930    0.0052833862
C       -2.7846445017   -4.1673659525   -0.1217583624
C        1.8155255704   -4.1326773477    2.3675999798
C       -0.1643966341   -3.4417185648    1.4252695491
C       -2.0392274859   -2.9018557203   -0.1500222404
C       -0.8660428283   -2.6210437912    0.4493075904
N       -6.9932178971   -6.5293248179    0.3524635944
N        1.1305010311   -3.3533228276    1.4633387693
N       -0.8888556478   -4.2712180893    2.2837474402
O        3.0328924182   -4.0838891007    2.4040001751
S       -1.9750386978   -5.7098924100   -0.4367490258
H        1.6956437027   -5.6135129604    3.9543248409
H       -4.8278972949   -3.5243811065    0.2640882978
H       -0.7876579678   -5.7417509227    3.8862550859
H       -3.5901939652   -7.6493047623   -0.3668224633
H       -2.5144885173   -2.0831652297   -0.6812601838
H       -0.3396595516   -1.7261990529    0.1409195850
H       -1.8961198007   -4.2749015403    2.1667118082
23   

C       -5.9315236147   -6.2210762320   -0.1145130986
C        1.2331254487   -4.8326945701    3.1946319732
C       -4.2153092511   -4.3427267752   -0.0492620077
C       -0.1191367102   -4.8257389525    3.3257154111
C       -3.4821679405   -6.5728315934   -0.1269530677
C       -4.5798326355   -5.7518068773   -0.0969627919
C       -2.8534702361   -4.1378474805   -0.0185599096
C        1.8505039035   -4.0296036926    2.1665744298
C       -0.2030479111   -3.2909590895    1.4465064275
C       -2.1759453275   -2.8410428053   -0.0274044152
C       -0.9928834490   -2.4976805937    0.5197457641
N       -7.0317690016   -6.6024790196   -0.1223969888
N        1.0881216478   -3.2642717122    1.3139445040
N       -0.8461983791   -4.0329744466    2.4391267327
O        3.0630005146   -4.0427696717    2.0429474032
S       -1.9717755835   -5.6724176458   -0.0928586993
H        1.8737122644   -5.4211846062    3.8360217808
H       -4.9484483949   -3.5425808651   -0.0464941257
H       -0.5998963087   -5.4233477256    4.0969144117
H       -3.5329698113   -7.6549881962   -0.1699969170
H       -2.7116692823   -2.0394429694   -0.5260818762
H       -0.5231147455   -1.5815502171    0.1841502526
H       -1.8587359673   -3.9886003962    2.4559893180
23   

C       -5.9311261504   -6.2364325694   -0.4629431130
C        1.3106589107   -4.8551597953    3.1870108537
C       -4.2299689834   -4.3649982741   -0.1762789131
C       -0.0107036164   -4.7275431172    3.4767117144
C       -3.5326236668   -6.5979616108    0.0238701298
C       -4.6013858225   -5.7725657582   -0.2095093912
C       -2.8970837661   -4.1595119234    0.1108217185
C        1.8569059495   -4.1634675946    2.0440687084
C       -0.2073533976   -3.2991532804    1.5246572423
C       -2.2385632864   -2.8584407586    0.1328959242
C       -1.0451988291   -2.5009424778    0.6484871620
N       -7.0145641023   -6.6133637399   -0.6636905699
N        1.0560395534   -3.3856996614    1.2395455489
N       -0.7791406168   -3.9264747837    2.6331616919
O        3.0404543324   -4.2848033981    1.7794601480
S       -2.0447684183   -5.7020936487    0.2977303389
H        1.9784431392   -5.4596260115    3.7843273601
H       -4.9377686445   -3.5654743207   -0.3692896994
H       -0.4366602071   -5.2398644415    4.3364207324
H       -3.5909588763   -7.6804280613    0.0364594399
H       -2.7889499201   -2.0570957959   -0.3498427192
H       -0.5990820883   -1.5757885783    0.3060050801
H       -1.7740262632   -3.7921806478    2.7711933207
23   

C       -5.0518828165   -6.7219413932   -1.8893292947
C        1.3106597094   -4.8219176007    3.2612770271
C       -3.3874579789   -4.8600859352   -1.3969714360
C        1.2960787357   -5.3364503567    2.0037625230
C       -3.6037262532   -6.6426157225    0.1142889211
C       -4.0478795386   -6.1156760100   -1.0695376342
C       -2.4381355974   -4.4809708586   -0.4702372340
C        0.6446426006   -3.5685963270    3.5233539552
C       -0.0384486831   -3.4234872248    1.3347398503
C       -1.7053181007   -3.2237986619   -0.5244066598
C       -0.7606210701   -2.7164126152    0.2939963317
N       -5.8655833668   -7.2179300933   -2.5587927270
N       -0.0191218340   -2.8983456470    2.5216005299
N        0.6192586772   -4.6144640884    1.0214621833
O        0.6604540222   -3.1058114910    4.6507741471
S       -2.3686949060   -5.6430430246    0.8661816437
H        1.8082419994   -5.3164090011    4.0834793144
H       -3.6357675145   -4.2808881176   -2.2802908993
H        1.7967884831   -6.2780278803    1.7899172391
H       -3.9709023249   -7.5673186113    0.5447444360
H       -2.0033770686   -2.5615178151   -1.3310113099
H       -0.5854395233   -1.6484598394    0.2645277506
H        0.5582308479   -4.9319849101    0.0612478296
