8    
Generated by ForceBalance from scan.xyz: Frame 1 of 24
C        0.3643146785    0.0798893119    0.6747674307
C       -0.4031824276   -0.0419376212   -0.6877297165
F        0.6609282774   -1.1391605715    1.1537876588
F        1.5271408763    0.7194172957    0.4317300291
F       -0.3811220915    1.1715451826   -1.2801998789
Cl      -2.0675467688   -0.6026627516   -0.4892008739
Br      -0.6220204591    1.1069195526    2.0172884848
Br       0.6036491534   -1.2753755256   -1.8600291351
8    
Generated by ForceBalance from scan.xyz: Frame 2 of 24
C       -2.1964853063  -10.9676605565    0.5482450412
C       -3.0185844987  -11.5417307530    1.7750848863
F       -3.0113934331  -10.3645862692   -0.3322642057
F       -1.3785110751  -10.0130280108    1.0421181511
F       -2.2073618834  -11.5120635717    2.8543016102
Cl      -3.6458475989  -13.1725571577    1.5206336608
Br      -1.0885400923  -12.2921895504   -0.3681277745
Br      -4.5067342377  -10.2967289976    2.1750640467
8    
Generated by ForceBalance from scan.xyz: Frame 3 of 24
C       -2.1578148186  -10.9679840477    0.5452206200
C       -3.0156596104  -11.5300541715    1.7797896456
F       -2.9199350472  -10.2129557911   -0.2626111402
F       -1.2182142706  -10.1529950892    1.0663644539
F       -2.2727966568  -11.3570726714    2.8945808806
Cl      -3.4829111484  -13.2292883295    1.6427129161
Br      -1.2449376879  -12.3227336627   -0.5319746688
Br      -4.6334257469  -10.4140289009    2.0199334226
8    
Generated by ForceBalance from scan.xyz: Frame 4 of 24
C        1.0378602501    1.0105020215    0.0377607054
C        0.4643330157    0.9841824508   -1.4748141029
F        0.5108345663    0.0057657062    0.7579479431
F        2.3647297515    0.7971672244   -0.0371877602
F        1.5279987092    0.8322720804   -2.2952407679
Cl      -0.3986431896    2.4529864313   -1.9652283373
Br       0.7474862567    2.6710051169    1.0364104533
Br      -0.7013038316   -0.5838173511   -1.7413388298
8    
Generated by ForceBalance from scan.xyz: Frame 5 of 24
C        1.0632112310    1.0336269029    0.0196569464
C        0.4691864155    0.9665202265   -1.4771300725
F        0.6991531610   -0.0627923439    0.7093819090
F        2.4017006867    1.0515943512   -0.0676985344
F        1.5093614974    0.6593122078   -2.2887644934
Cl      -0.1894426407    2.5138856868   -2.0594031105
Br       0.4848525259    2.5772879125    1.0848506650
Br      -0.8890209161   -0.4381727327   -1.6391485597
8    
Generated by ForceBalance from scan.xyz: Frame 6 of 24
C        0.1806465971    0.9499068046    0.8781905573
C       -0.3251701276    0.5256488764   -0.5715275327
F        0.0643689686   -0.0950419090    1.7199176020
F        1.4732415370    1.2959252254    0.7911108942
F        0.7603889837    0.0418672513   -1.2251114789
Cl      -0.9035940379    1.9133630328   -1.5269364181
Br      -0.8307951421    2.4234734415    1.6864910890
Br      -1.7025278191   -0.8575668310   -0.4666177374
8    
Generated by ForceBalance from scan.xyz: Frame 7 of 24
C        0.1951654572    0.9544341467    0.8733022636
C       -0.3241650776    0.5146112602   -0.5472881781
F        0.2567759583   -0.1273802065    1.6730027747
F        1.4305088697    1.4617415895    0.7368635840
F        0.7161893848   -0.1158712418   -1.1498525292
Cl      -0.7313596299    1.9238942742   -1.5569717903
Br      -0.9619912758    2.2680737732    1.7560587771
Br      -1.8341590950   -0.7131774416   -0.3946418865
8    
Generated by ForceBalance from scan.xyz: Frame 8 of 24
C       -0.4758016201    7.6818209450   -0.5025470777
C       -1.5463365603    6.7461781435   -1.1648511835
F       -1.1160942223    8.6176509799    0.2224250895
F        0.2644813734    6.9390289222    0.3432778025
F       -2.2451664629    6.1934631071   -0.1415003052
Cl      -0.7728279505    5.4436303156   -2.0882963810
Br       0.7052715108    8.5596099258   -1.7885335176
Br      -2.7901967485    7.7790985422   -2.2701353145
8    
Generated by ForceBalance from scan.xyz: Frame 9 of 24
C        1.8273216572    0.5043458561    5.4813243341
C        1.0167279476    0.3777176048    4.1391334441
F        1.6314549982   -0.6167399499    6.1985432857
F        3.1421930597    0.5434834537    5.1682482981
F        1.2545106956   -0.8708394315    3.6689473233
Cl       1.5491915760    1.5787774282    2.9551826646
Br       1.3968866089    2.0799112593    6.5441247333
Br      -0.9185026950    0.4948869760    4.4691817264
8    
Generated by ForceBalance from scan.xyz: Frame 10 of 24
C       -0.1594031199   -3.3597361633    3.3864655392
C       -0.1483258577   -3.0500200044    1.8286373288
F       -0.0495198069   -2.1922715545    4.0438660527
F       -1.3802327948   -3.8557833122    3.7029084638
F       -0.6931299837   -1.8194217643    1.6772631893
Cl      -1.0773894545   -4.2513580743    0.9262438666
Br       1.1752172688   -4.6343482029    4.0049114711
Br       1.6865117269   -2.9013237175    1.1207664107
8    
Generated by ForceBalance from scan.xyz: Frame 11 of 24
C       -0.1652527959   -3.3804869450    3.4041361562
C       -0.1176229553   -3.0282019414    1.8345631428
F       -0.2581119715   -2.2220350091    4.0802129031
F       -1.3042857193   -4.0617643376    3.6595509337
F       -0.5201550349   -1.7413171018    1.7149111695
Cl      -1.1976598929   -4.0809863006    0.9052199818
Br       1.3114772612   -4.4417087722    4.1071170185
Br       1.6980664866   -3.0824664868    1.0723701895
8    
Generated by ForceBalance from scan.xyz: Frame 12 of 24
C        4.7607217772   -1.6750482502    4.3178943507
C        5.6042812189   -2.8548137741    3.5954050873
F        4.3862143982   -0.8078887102    3.3603544537
F        3.6403933875   -2.1846762030    4.8618678276
F        5.6379376699   -2.5554017921    2.2767697230
Cl       4.7816500502   -4.4213001880    3.7896434846
Br       5.6798369840   -0.6697231356    5.7219409255
Br       7.4702930545   -3.0178995637    4.1824743951
8    
Generated by ForceBalance from scan.xyz: Frame 13 of 24
C        6.2300445099   -0.3093451529    3.7157118802
C        7.0300053020   -1.6859804702    3.9546178169
F        5.4565931994   -0.4837813182    2.6284463424
F        5.4468249412   -0.0267853787    4.7656130608
F        6.9144940751   -2.4103970704    2.8198955165
Cl       6.2232510572   -2.6207674444    5.2517157621
Br       7.3473953476    1.2666622188    3.3585316083
Br       8.9273257678   -1.4915966922    4.3802098850
8    
Generated by ForceBalance from scan.xyz: Frame 14 of 24
C        4.4553906170   -2.7891999431    5.0069974668
C        4.0018452396   -4.3110679992    4.9727717061
F        3.4489940725   -2.0592946715    4.4902698161
F        4.7037159203   -2.3912197435    6.2602314965
F        3.1694339856   -4.4580882026    3.9190850948
Cl       3.0312881916   -4.6389503600    6.4462562729
Br       6.0376448016   -2.4014494758    3.9042124430
Br       5.4626939223   -5.5973063962    4.8471203896
8    
Generated by ForceBalance from scan.xyz: Frame 15 of 24
C        2.3218343516    1.7377785481    1.1065058949
C        3.6219470075    2.5643104392    1.4122526813
F        1.3880720970    2.0931671643    2.0098673701
F        1.8747707098    2.0010186152   -0.1280449058
F        3.8254632429    2.5242651391    2.7466779412
Cl       3.3128288927    4.2730603216    0.9678547686
Br       2.5886926876   -0.1998971409    1.3010614861
Br       5.1950770746    1.9001617653    0.4677788999
8    
Generated by ForceBalance from scan.xyz: Frame 16 of 24
C       -3.4815829617   -0.1725823101   -0.4138445715
C       -2.9995310945   -1.4115880455   -1.2404051917
F       -2.8129381830   -0.1573971898    0.7564297237
F       -3.2033296087    0.9600869000   -1.0800797851
F       -3.2684478126   -2.5228780762   -0.5209404235
Cl      -1.2357557843   -1.3000835300   -1.4772927468
Br      -5.3975695324   -0.2466709478   -0.0172105876
Br      -3.9188579932   -1.5195236485   -2.9664951194
8    
Generated by ForceBalance from scan.xyz: Frame 17 of 24
C       -3.6904264272   -0.8087326311   -0.4114282699
C       -2.9374792333   -2.0299089012   -1.0505357167
F       -3.0042338164   -0.3770442959    0.6653500380
F       -3.7311583292    0.2064616874   -1.2936889128
F       -3.1383434452   -3.1179319929   -0.2739755391
Cl      -1.1964858396   -1.6891502616   -1.1464320244
Br      -5.5098306387   -1.2750053134    0.1320348845
Br      -3.6730342737   -2.4166618011   -2.8303838999
8    
Generated by ForceBalance from scan.xyz: Frame 18 of 24
C       -3.4689438231   -0.1390005736   -0.4089393441
C       -3.0141946685   -1.4161126729   -1.2290503233
F       -2.5814702523    0.1155303248    0.5726786832
F       -3.4589165275    0.9408598147   -1.2159282524
F       -3.5492848881   -2.5232301324   -0.6675614475
Cl      -1.2482630415   -1.5578142559   -1.2534983165
Br      -5.2533021606   -0.3494622730    0.3505340099
Br      -3.7367834649   -1.3148308781   -3.0604647571
8    
Generated by ForceBalance from scan.xyz: Frame 19 of 24
C       -3.4888026558   -0.1341819249   -0.4172788562
C       -3.0178494612   -1.4218799984   -1.2456883678
F       -2.5271233088    0.2379764638    0.4483502828
F       -3.6714932838    0.9095913702   -1.2474616347
F       -3.6601326791   -2.5185473869   -0.7854262155
Cl      -1.2689169838   -1.6763986517   -1.0962206308
Br      -5.1519125406   -0.4486547553    0.5596081807
Br      -3.5306773315   -1.2413436236   -3.1402410474
8    
Generated by ForceBalance from scan.xyz: Frame 20 of 24
C       -3.4932308513   -0.1063403301   -0.4359261911
C       -3.0298502801   -1.4093996870   -1.2614906461
F       -2.4704333758    0.3710601348    0.2945394578
F       -3.8737746476    0.8759269710   -1.2693606987
F       -3.7830269094   -2.4714076542   -0.9020718073
Cl      -1.3307825483   -1.8074326931   -0.9186905528
Br      -4.9851220252   -0.4941519439    0.7760311065
Br      -3.2912035719   -1.1484084476   -3.1944408375
8    
Generated by ForceBalance from scan.xyz: Frame 21 of 24
C        3.3764456044    8.5001530903    2.7855122197
C        3.9411603802    8.5452703192    1.2863483176
F        3.6968436191    7.3339772816    3.3703341551
F        3.8892384854    9.4931150586    3.5270286190
F        2.9925349512    9.0192915815    0.4512200837
Cl       4.3513675371    6.9020195158    0.7306193272
Br       1.4169673097    8.6548235316    2.8180697817
Br       5.5098985692    9.7195916913    1.1601362481
8    
Generated by ForceBalance from scan.xyz: Frame 22 of 24
C        0.3831164273    0.0269857992    0.6746948911
C       -0.3522186078   -0.0727791680   -0.7258426528
F        0.2082843847   -1.1077306539    1.3717556756
F        1.6973175265    0.2378793017    0.5148328584
F       -0.7500385620    1.1566052088   -1.1180262052
Cl      -1.8160501818   -1.0780573870   -0.5700111655
Br      -0.3600994027    1.4996757115    1.7489810770
Br       0.8526979475   -0.8124592808   -2.0855914716
8    
Generated by ForceBalance from scan.xyz: Frame 23 of 24
C        0.3779928509    0.0413342430    0.6639040513
C       -0.3659955934   -0.0692969453   -0.7142070613
F        0.3498957007   -1.1447979681    1.2939734777
F        1.6569888204    0.4037225003    0.4746606827
F       -0.6192671511    1.1739543878   -1.1767553905
Cl      -1.9143584888   -0.9190636543   -0.5093190827
Br      -0.4833291682    1.3788550666    1.8177101042
Br       0.7761668669   -1.0059159672   -2.0106892931
8    
Generated by ForceBalance from scan.xyz: Frame 24 of 24
C        0.3605541721    0.0497283714    0.6428589307
C       -0.3836259560   -0.0774218866   -0.7263934308
F        0.4929546650   -1.1620647596    1.2068236510
F        1.5873661084    0.5585619818    0.4281888666
F       -0.4966976927    1.1583240074   -1.2601534052
Cl      -1.9949456423   -0.7880909022   -0.5227946544
Br      -0.5912595853    1.2400395621    1.8781854731
Br       0.7085110001   -1.1758432481   -1.9436452872
