24   

C       -0.6279594058    1.2018757110   -0.0554136658
C        0.5635715259    0.6605188954    0.3739303750
C        1.5239331323    1.4391078584    1.2314323659
C       -1.5737930744    0.4555131466   -0.9465809039
C       -0.1022980708   -1.5106644075   -0.6660933596
C        3.6694203324    1.7649661457    2.4070378645
C        3.6133421092    0.3950526627    0.3303317755
N        0.8921958352   -0.6570094359   -0.0218197457
N       -0.8557130303   -0.6593349843   -1.5804111712
N        2.8779207594    1.0921195672    1.3810200448
O        1.1567470494    2.4617990752    1.8123676603
H       -0.8654148800    2.2242360754    0.2145045290
H       -2.4095764402    0.0748768356   -0.3504112905
H       -1.9723021906    1.1303639062   -1.7111812976
H        0.3940273393   -2.3100465749   -1.2250785219
H       -0.7677000926   -1.9536917115    0.0828741375
H        4.6092856499    1.2312010209    2.5796184389
H        3.1227831011    1.7866307178    3.3557440619
H        3.8932467772    2.7919145707    2.1010586645
H        4.6052117166    0.8412941639    0.2056594190
H        3.1090191458    0.4911771153   -0.6367616960
H        3.7339075527   -0.6630816883    0.5801484020
H        1.7503720840   -1.0794969612    0.3127280138
H       -1.4608647598   -1.2023793548   -2.1868648132
24   

C       -0.5861379471    1.1857804325   -0.0927347480
C        0.5506660577    0.6066449144    0.4227074343
C        1.4836639374    1.3522963927    1.3368038258
C       -1.5037775832    0.4525618557   -1.0236446138
C       -0.1439510695   -1.5668142083   -0.5851004854
C        3.6774014836    1.7390770006    2.4039349308
C        3.5604279451    0.4728743102    0.2574706522
N        0.8437611481   -0.7366878973    0.0991048189
N       -0.7966754221   -0.7135889398   -1.5733249295
N        2.8625228462    1.0915394862    1.3808474149
O        1.0593535571    2.2477287168    2.0704236607
H       -0.7968353997    2.2221961737    0.1431771622
H       -2.3940410868    0.1287881145   -0.4745868249
H       -1.8189842507    1.1183855257   -1.8336710422
H        0.3511905556   -2.4048867441   -1.0853853163
H       -0.8765577394   -1.9558478016    0.1304014077
H        4.6586877657    1.2593755312    2.4745251055
H        3.1966372136    1.6544045386    3.3842059678
H        3.8152829835    2.7981998990    2.1641959959
H        4.5079135960    0.9891880457    0.0730495401
H        2.9786516001    0.5534641995   -0.6665711411
H        3.7677646964   -0.5807296410    0.4660762951
H        1.6627613646   -1.1810119096    0.4991690714
H       -1.3855423890   -1.2504367957   -2.2010098856
24   

C       -0.5357064587    1.1791053366   -0.1261096430
C        0.5351287807    0.5561018168    0.4694374941
C        1.4516438287    1.2601362917    1.4344762790
C       -1.4296683929    0.4649181218   -1.0942936393
C       -0.2025869864   -1.6078143973   -0.5209723704
C        3.6822532750    1.7108564118    2.4011633354
C        3.4993290609    0.5534573717    0.1921622976
N        0.7783466581   -0.8100112868    0.2099143187
N       -0.7478248189   -0.7489761252   -1.5690528403
N        2.8429827314    1.0958091623    1.3785925532
O        0.9954407656    2.0015302817    2.3081198512
H       -0.7080621868    2.2293108096    0.0764529416
H       -2.3668630686    0.1992125132   -0.5943246722
H       -1.6611943121    1.1219515800   -1.9389843255
H        0.2820594263   -2.4806751374   -0.9693701612
H       -0.9983757433   -1.9438919220    0.1526509996
H        4.6846766602    1.2715018175    2.3898535295
H        3.2589747157    1.5419840116    3.3968793988
H        3.7640927985    2.7881223576    2.2255292316
H        4.3970085870    1.1354079885   -0.0395244419
H        2.8521361646    0.6144017458   -0.6887834242
H        3.7854518429   -0.4896853041    0.3554031673
H        1.5510407271   -1.2802470484    0.6691811625
H       -1.3220506451   -1.2736164856   -2.2202384662
24   

C       -0.4011411865    1.1787550474   -0.0939712073
C        0.5973904712    0.5102105026    0.5713560688
C        1.5252271129    1.1715821667    1.5594084122
C       -1.2900962518    0.4832853934   -1.0804107052
C       -0.2116686747   -1.6377708948   -0.3881061239
C        3.7976482328    1.7083699271    2.3854775245
C        3.5041645652    0.6594917172    0.1304766813
N        0.7736027556   -0.8744890383    0.3732151711
N       -0.6558519163   -0.7811063703   -1.4858096067
N        2.9138091353    1.1244396520    1.3828113571
O        1.0793556222    1.7413016975    2.5588715580
H       -0.5163833242    2.2438264257    0.0652530641
H       -2.2619360934    0.2851151731   -0.6165168759
H       -1.4467037977    1.1237642241   -1.9545068200
H        0.2459852536   -2.5479387804   -0.7881058911
H       -1.0578928903   -1.9113937151    0.2514368284
H        4.7991785597    1.2732852174    2.3104843134
H        3.4269160341    1.5050549871    3.3955111746
H        3.8680843770    2.7910697227    2.2419880530
H        4.3468545682    1.3001047028   -0.1479666061
H        2.7886592513    0.7049791954   -0.6968000950
H        3.8594540270   -0.3699042309    0.2352543755
H        1.4946487935   -1.3715201996    0.8858175711
H       -1.2268517775   -1.2934218555   -2.1495721921
24   

C       -0.3461068952    1.1938836248   -0.1726932555
C        0.5423535814    0.4744974475    0.5876943028
C        1.4425935155    1.0764774920    1.6407896329
C       -1.1915483315    0.5317330281   -1.2186249527
C       -0.2972962987   -1.6377583845   -0.4141529609
C        3.6984221397    1.7394489520    2.4417778445
C        3.3995993700    0.8510244385    0.1184363233
N        0.6595581958   -0.9197631946    0.4234904522
N       -0.5993816192   -0.7732154940   -1.5543936685
N        2.8184906183    1.1947824555    1.4133259874
O        0.9821644344    1.4307930642    2.7300846279
H       -0.4033324955    2.2674858568   -0.0440334448
H       -2.2069061523    0.3955559994   -0.8318835277
H       -1.2416861090    1.1642618386   -2.1108755434
H        0.1420908666   -2.5765884169   -0.7654502279
H       -1.2087730316   -1.8569544787    0.1525510771
H        4.6847560518    1.2688171121    2.3823729542
H        3.3067422367    1.5445110446    3.4452838306
H        3.8095916856    2.8199598007    2.3088237101
H        4.2114574642    1.5432349438   -0.1257515799
H        2.6656217129    0.9272367686   -0.6900107110
H        3.7962239863   -0.1685532066    0.1393006102
H        1.2893888309   -1.4483207251    1.0186670340
H       -1.1416805970   -1.2637103561   -2.2575648215
24   

C       -0.2038322565    1.2081280362   -0.2403255403
C        0.5522816298    0.4229041400    0.5941232054
C        1.4628698054    0.9444369718    1.6808367798
C       -1.0525037673    0.6020107149   -1.3171752521
C       -0.4132185177   -1.6233627584   -0.4207731332
C        3.6836005189    1.7564756932    2.4460393290
C        3.3399042061    1.0800917355    0.0567801198
N        0.5570680834   -0.9771255633    0.4585257479
N       -0.5710717966   -0.7613912034   -1.5924990283
N        2.7980893654    1.2530064206    1.4013353414
O        1.0346027847    1.0868141815    2.8307007552
H       -0.1547934567    2.2853679974   -0.1444378596
H       -2.0949383148    0.5715848743   -0.9829884119
H       -0.9962504064    1.2132305673   -2.2237260954
H       -0.0432268178   -2.6060620301   -0.7294826041
H       -1.3711340812   -1.7459154550    0.0963418882
H        4.2644493050    0.9347209085    2.8758037168
H        3.1206603232    2.2470828297    3.2465110415
H        4.3700996842    2.5012089428    2.0312857740
H        3.2136340313    1.9990422953   -0.5238549961
H        2.8529700198    0.2557597344   -0.4735644205
H        4.4059197816    0.8374420656    0.1078714523
H        1.0675236988   -1.5434052870    1.1294125341
H       -1.1193300647   -1.2167527405   -2.3144272546
24   

C       -0.0314639252    1.1979823970   -0.2772007502
C        0.6058837515    0.3650198598    0.6095581290
C        1.5434420256    0.8131615410    1.7034987796
C       -0.9204662929    0.6498917647   -1.3526415331
C       -0.5482788590   -1.5987445221   -0.3643425248
C        3.6970617363    1.7773524593    2.4646459017
C        3.3253373636    1.2724249311    0.0350135048
N        0.4682066654   -1.0294209141    0.5154659498
N       -0.5896691151   -0.7677164253   -1.5683393553
N        2.8174577798    1.3025517442    1.4027520550
O        1.1720612201    0.7613147259    2.8814887559
H        0.1360800367    2.2658749147   -0.2191119441
H       -1.9661754661    0.7475055062   -1.0421427646
H       -0.7790287346    1.2169025965   -2.2783643464
H       -0.2804891787   -2.6259249453   -0.6309512924
H       -1.5237008813   -1.5993039686    0.1342702697
H        4.2916013140    0.9486680602    2.8612980699
H        3.1210866085    2.2249338048    3.2811953413
H        4.3712548893    2.5496275477    2.0812254286
H        3.1071431767    2.2166994586   -0.4729959602
H        2.8855479152    0.4492056194   -0.5375843172
H        4.4082074362    1.1128704413    0.0380148618
H        0.8668090153   -1.6114179261    1.2469175074
H       -1.1716358001   -1.1872131761   -2.2855605550
24   

C        0.1767804494    1.0851025547   -0.3163049234
C        0.7567213743    0.2566022718    0.6147046717
C        1.7321722618    0.6823427529    1.6804015370
C       -0.7813769805    0.5518972686   -1.3388580434
C       -0.5953757907   -1.6500305769   -0.2013075798
C        3.8004088498    1.8190519341    2.4277440514
C        3.3840591989    1.4402854299   -0.0160470077
N        0.4925131938   -1.1199295279    0.6146648935
N       -0.5931690519   -0.9022401988   -1.4594684325
N        2.9236521728    1.3417306353    1.3648065802
O        1.4479138240    0.4733786721    2.8664909325
H        0.4290077132    2.1376313180   -0.3263229162
H       -1.8064568476    0.7711412414   -1.0215744389
H       -0.6059314023    1.0377880335   -2.3040072865
H       -0.4303205909   -2.7134419709   -0.4007822995
H       -1.5525952610   -1.5255113666    0.3166739365
H        4.4565078458    1.0119215556    2.7679005211
H        3.2166086235    2.1865680852    3.2781331683
H        4.4140636451    2.6514654203    2.0692893995
H        3.0745100796    2.3937408534   -0.4545903148
H        2.9914036049    0.6203575072   -0.6264741609
H        4.4757109952    1.3693911263   -0.0553686142
H        0.8292060385   -1.6687329553    1.4019953481
H       -1.2305140470   -1.3130521623   -2.1332597913
24   

C        0.2755672874    1.0011763193   -0.4179632219
C        0.7942941743    0.1715959400    0.5497278587
C        1.7845463329    0.5591953379    1.6139188715
C       -0.7346631865    0.5039835648   -1.4087452045
C       -0.7515490303   -1.6349244933   -0.1423648077
C        3.7666904689    1.7871145339    2.4369914902
C        3.3628955246    1.5711644011   -0.0253525877
N        0.3964612129   -1.1677687956    0.6274483651
N       -0.6950762094   -0.9659202257   -1.4426146079
N        2.9108384918    1.3434253115    1.3426525911
O        1.5726753823    0.1933326314    2.7781529287
H        0.5992164771    2.0319667836   -0.4754194447
H       -1.7314094758    0.8437275400   -1.1078010958
H       -0.5154977904    0.9108006479   -2.4011332775
H       -0.6950543818   -2.7193421388   -0.2791223058
H       -1.6831151723   -1.3853994280    0.3772357021
H        4.4591961288    0.9896010072    2.7235648860
H        3.1657018794    2.0683378854    3.3081572594
H        4.3414167709    2.6692817776    2.1378676999
H        2.9883938105    2.5293724618   -0.3979155546
H        3.0295959192    0.7687082149   -0.6916810924
H        4.4569016475    1.5806206871   -0.0642041455
H        0.6838413287   -1.6879902618    1.4541349777
H       -1.3782144168   -1.3510804034   -2.0859102806
24   

C        0.3821063349    0.9011364025   -0.4742196167
C        0.8691989193    0.0916738350    0.5288933241
C        1.8772197939    0.4674955574    1.5808858598
C       -0.6790885552    0.4205368779   -1.4198173131
C       -0.8398496943   -1.6202389658   -0.0116652171
C        3.7822288928    1.7686785290    2.4626716173
C        3.3731043981    1.6866464548   -0.0019725890
N        0.3620997606   -1.1978726697    0.6982819981
N       -0.7614636090   -1.0460075189   -1.3546862434
N        2.9354806872    1.3550101978    1.3491235360
O        1.7663912967   -0.0343766185    2.7085851454
H        0.7508835434    1.9106205220   -0.5909765887
H       -1.6404688133    0.8610000257   -1.1348784711
H       -0.4417701965    0.7396200935   -2.4397386236
H       -0.8743387733   -2.7123493052   -0.0745850658
H       -1.7341640251   -1.2603033274    0.5085951726
H        4.5025830835    0.9808792808    2.7042260167
H        3.1747599808    1.9811727447    3.3487452084
H        4.3256790299    2.6846770055    2.2104100273
H        2.9466514843    2.6428493564   -0.3198391270
H        3.0877473347    0.9046888053   -0.7132402102
H        4.4648307638    1.7608171004   -0.0367932438
H        0.6453399388   -1.6893961924    1.5450238317
H       -1.4875182685   -1.4160069065   -1.9585872400
24   

C        0.4555043928    0.8148057603   -0.5677294487
C        0.9112457098    0.0260376992    0.4688982998
C        1.9394109239    0.3808451097    1.5114207950
C       -0.6496727522    0.3573131732   -1.4748348982
C       -0.9452315544   -1.5715315048    0.0596055574
C        3.7695279172    1.7262205766    2.4762726301
C        3.3462573456    1.8138093554    0.0202197753
N        0.3015050358   -1.2019926460    0.7185738881
N       -0.8473906034   -1.0904767726   -1.3172744434
N        2.9287249378    1.3597218472    1.3410774077
O        1.9386489514   -0.2541581726    2.5762169747
H        0.8656586936    1.7977278729   -0.7443730518
H       -1.5708021100    0.8895873266   -1.2148901759
H       -0.3983568775    0.5908141623   -2.5144167969
H       -1.0669484917   -2.6591712063    0.0680071685
H       -1.7968080659   -1.1084987806    0.5699026638
H        4.5322837649    0.9598524579    2.6463946758
H        3.1638541935    1.8343645235    3.3822497753
H        4.2621770890    2.6865821830    2.2944873288
H        2.8484461428    2.7532194791   -0.2386750230
H        3.1309968446    1.0579584126   -0.7420329129
H        4.4286321397    1.9775953304    0.0022309204
H        0.6009641061   -1.6921183533    1.5615174957
H       -1.6105910951   -1.4384437617   -1.8874577507
24   

C        0.5474602283    0.7118971691   -0.6619863200
C        0.9538934336   -0.0206939428    0.4376296436
C        2.0205366897    0.3049394845    1.4564972443
C       -0.6065209060    0.2723702882   -1.5169044204
C       -1.0446715672   -1.4824979022    0.1769844189
C        3.8073531804    1.6478428005    2.5017377208
C        3.2928194805    1.9824276862    0.0900748206
N        0.2337707767   -1.1556070116    0.7952473967
N       -0.9214441975   -1.1345754901   -1.2361877958
N        2.9478160124    1.3547338002    1.3579074768
O        2.1246653086   -0.4397804835    2.4431407386
H        1.0247833520    1.6337544774   -0.9498894357
H       -1.4764941435    0.8998674522   -1.2962758932
H       -0.3528403494    0.3951725904   -2.5747549079
H       -1.2517034437   -2.5519442681    0.2831709210
H       -1.8517441808   -0.9098220884    0.6466819556
H        4.6141490495    0.9110512875    2.5682359584
H        3.2283451085    1.6278263023    3.4310818240
H        4.2434890053    2.6475422348    2.4100352278
H        2.6544736041    2.8517448647   -0.0952616547
H        3.2077499389    1.2662154456   -0.7335782464
H        4.3346734632    2.3186768803    0.1035448514
H        0.5577422041   -1.6568295321    1.6231033357
H       -1.7169172811   -1.4654560194   -1.7713214361
24   

C        0.8317200705    0.5654428017   -0.6725375248
C        0.9097584525    0.2860574384    0.6754731253
C        2.1048905462    0.4530629003    1.5801136107
C       -0.3655841614    0.1603539349   -1.4771644152
C       -1.3289486317   -0.8123786123    0.5886973081
C        4.3280559474    1.3252060103    2.2038603797
C        2.9900533299    2.5070706870    0.4596116500
N       -0.1279671115   -0.3936210564    1.3070508014
N       -0.9768516599   -1.0011757627   -0.8183208342
N        3.1459158366    1.3629258104    1.3490186957
O        2.1582302384   -0.2372509251    2.6070543357
H        1.6827683583    0.9630568701   -1.2054116292
H       -1.0793676818    0.9887169185   -1.5292215519
H       -0.0560264701   -0.1034273055   -2.4938523392
H       -1.7005186922   -1.7545461727    1.0040628965
H       -2.1093776231   -0.0505809986    0.6866168685
H        5.1655363998    1.8405849228    1.7231865398
H        4.6391377395    0.2903458337    2.3819916969
H        4.1170207696    1.8047621556    3.1648004325
H        1.9376880199    2.7950141494    0.3701372718
H        3.3975666698    2.2824691775   -0.5307633520
H        3.5201934394    3.3748303848    0.8653834912
H        0.1236489624   -0.8494826342    2.1849751017
H       -1.7521223737   -1.3853557533   -1.3477280777
24   

C        0.8917942389    0.4532399045   -0.7220791259
C        0.9511232026    0.2225589343    0.6341303995
C        2.1611559364    0.3669378195    1.5172742123
C       -0.3335352327    0.1052650852   -1.5107568146
C       -1.3793512954   -0.6594458200    0.6065120613
C        4.3414450751    1.3402072136    2.1496146852
C        2.8731098559    2.5406408085    0.5187957498
N       -0.1422757083   -0.3260517206    1.3089877850
N       -1.0496123662   -0.9549432836   -0.7880763556
N        3.1297947251    1.3618771037    1.3375737465
O        2.3074322175   -0.4429251178    2.4420687848
H        1.7754448318    0.7733967845   -1.2568319405
H       -0.9706780926    0.9885671968   -1.6206600529
H       -0.0443303358   -0.2472328316   -2.5063580041
H       -1.8426345061   -1.5373820015    1.0678354783
H       -2.0805502929    0.1796962222    0.6625264706
H        5.1299863296    1.9335425143    1.6761488521
H        4.7179574049    0.3168056838    2.2509701153
H        4.1378871591    1.7458398665    3.1455148167
H        1.8002809207    2.7474491234    0.4499631526
H        3.2842452516    2.4066525929   -0.4863266309
H        3.3363046239    3.4225797607    0.9729570437
H        0.0850864976   -0.8139328545    2.1753104108
H       -1.8567050270   -1.2969931135   -1.2985314242
24   

C        0.9782312196    0.3222750785   -0.7799281584
C        1.0312674614    0.1366857259    0.5817427391
C        2.2574305897    0.2582687243    1.4441232181
C       -0.2768420756    0.0396904320   -1.5476865103
C       -1.3727728651   -0.5093006191    0.6143154444
C        4.3819748250    1.3284017150    2.1180382389
C        2.7995294845    2.5365498187    0.5971712156
N       -0.1018706154   -0.2755722777    1.2970648927
N       -1.0866697172   -0.9052743282   -0.7652085640
N        3.1490324249    1.3308831578    1.3390251822
O        2.4973590552   -0.6518936649    2.2471732873
H        1.8818139690    0.5675607000   -1.3224668825
H       -0.8306450147    0.9694830054   -1.7119555167
H       -0.0244980862   -0.3963876399   -2.5199546922
H       -1.9224526509   -1.3102228770    1.1188626010
H       -1.9815588662    0.4006816091    0.6316344587
H        5.1271565552    1.9826187798    1.6547012440
H        4.8115200462    0.3219014221    2.1593690508
H        4.1865479112    1.6748611160    3.1375818830
H        1.7141177622    2.6709993800    0.5487144063
H        3.2039091023    2.4914531004   -0.4185499703
H        3.2059223813    3.4195539375    1.1008224139
H        0.0877152275   -0.7802036290    2.1616876892
H       -1.9267484350   -1.1952213952   -1.2542999240
24   

C        1.0317078625    0.1789383209   -0.8619226406
C        1.0902957799    0.0597069192    0.5055315142
C        2.3387490393    0.1581812290    1.3406767982
C       -0.2541473484   -0.0375161848   -1.5997160820
C       -1.3644453039   -0.3360527187    0.6057784907
C        4.3908798870    1.3208292229    2.0900726712
C        2.6982768439    2.5309098661    0.6900269743
N       -0.0654517282   -0.2028933676    1.2626962066
N       -1.1425067576   -0.8433208211   -0.7488491898
N        3.1430658355    1.3013231567    1.3356242564
O        2.6758889284   -0.8240829976    2.0115199263
H        1.9451399333    0.3324204506   -1.4220568085
H       -0.7190308240    0.9271225570   -1.8268461438
H       -0.0560807208   -0.5622505737   -2.5402325584
H       -1.9904193074   -1.0405454013    1.1625741689
H       -1.8706835664    0.6343299672    0.5725124253
H        5.0855612843    2.0478494412    1.6578681923
H        4.8808875538    0.3420897817    2.0573605481
H        4.1977083528    1.5877806567    3.1336625502
H        1.6056957595    2.5865397194    0.6493398910
H        3.0990079757    2.5945762899   -0.3261522511
H        3.0388258512    3.4003738000    1.2613705917
H        0.0810967565   -0.6952460660    2.1414276399
H       -2.0146558951   -1.0780295443   -1.2107299494
24   

C        1.1132923928    0.0048499387   -0.9281778343
C        1.2061771978   -0.0042587318    0.4414424750
C        2.4897199671    0.0856591881    1.2286670509
C       -0.2077236373   -0.1713574748   -1.6126370957
C       -1.2685321127   -0.1793191478    0.6380125732
C        4.4406090748    1.3478875944    2.0890148486
C        2.6224856369    2.5365288931    0.8353335732
N        0.0569163519   -0.1177305528    1.2513642886
N       -1.1350165958   -0.8179257876   -0.6716077663
N        3.1810130315    1.2936735896    1.3558905423
O        2.9405758024   -0.9359865549    1.7568533046
H        2.0180273700    0.0494394471   -1.5209376074
H       -0.5987275503    0.8041592944   -1.9190050833
H       -0.0811773231   -0.7940182850   -2.5044805423
H       -1.9406918578   -0.7712382956    1.2672813902
H       -1.6822593222    0.8290273228    0.5323098135
H        5.0724683744    2.1518851118    1.6988158934
H        4.9994054772    0.4127017417    1.9791298657
H        4.2513130121    1.5260610321    3.1520342088
H        1.5298573941    2.4960890722    0.7841844006
H        3.0190538458    2.7426788176   -0.1634275546
H        2.8773545460    3.3695641979    1.4981127782
H        0.1818991954   -0.5592172010    2.1589419678
H       -2.0382170848   -1.0125984662   -1.0904771407
24   

C        1.1201272205   -0.1978411567   -1.0061828523
C        1.2612317145   -0.0472146695    0.3506390832
C        2.5810579282    0.0450680418    1.0808868911
C       -0.2320405201   -0.3639514617   -1.6294530673
C       -1.2123722110   -0.0392906779    0.6343344224
C        4.4332105604    1.3723676218    2.0685886029
C        2.4895828892    2.5251383523    0.9753644302
N        0.1335388426   -0.0175343011    1.2036228181
N       -1.1693500982   -0.8295139562   -0.5957296211
N        3.1514786777    1.2875637952    1.3753040559
O        3.1457933313   -0.9871518958    1.4546248944
H        2.0051310176   -0.2793494110   -1.6244710424
H       -0.5682881154    0.5935660203   -2.0402288267
H       -0.1761750087   -1.0933830569   -2.4441965826
H       -1.9073520041   -0.5009673472    1.3428101786
H       -1.5498239508    0.9810948669    0.4241278658
H        5.0177619974    2.2162441823    1.6894337933
H        5.0324579508    0.4697028497    1.9119288234
H        4.2705636975    1.5045921694    3.1426558609
H        1.9196822985    2.3959735234    0.0503313198
H        3.2273395026    3.3114016328    0.7880800983
H        1.8107926936    2.8599712411    1.7660515941
H        0.2550439315   -0.3705198232    2.1487805202
H       -2.0977872806   -1.0009851339   -0.9668862786
24   

C        1.1355188364   -0.3737948137   -1.0434125023
C        1.3283708612   -0.0800351267    0.2831999303
C        2.6825793926    0.0264942361    0.9474206146
C       -0.2403150032   -0.5491970880   -1.6092766230
C       -1.1360300216    0.0525600216    0.6309966240
C        4.4264571707    1.3659952578    2.1148614701
C        2.3898087051    2.4824019869    1.1766049026
N        0.2256671295    0.0643175537    1.1612096890
N       -1.1643239703   -0.8627360056   -0.5086090680
N        3.1497896220    1.2602431210    1.4150356139
O        3.3604047149   -0.9866916971    1.1418565748
H        1.9973145263   -0.5561538609   -1.6731991081
H       -0.5509095909    0.3730682910   -2.1110867255
H       -0.2373643799   -1.3616133597   -2.3433577916
H       -1.8313202804   -0.2972722068    1.4005559871
H       -1.4301226354    1.0613505636    0.3224342939
H        5.1987243963    1.7387144343    1.4350793470
H        4.7508020295    0.4005057792    2.5157026433
H        4.3331395404    2.0520849101    2.9624398560
H        1.8576255107    2.4391903056    0.2210027623
H        3.0619662594    3.3450069045    1.1304342145
H        1.6656987164    2.6411571658    1.9817538486
H        0.3587574809   -0.1931917915    2.1346234285
H       -2.1099125955   -1.0270344958   -0.8373061765
24   

C        1.3041413506   -0.4884759096   -1.0185930004
C        1.5110209859   -0.0723983829    0.2735759628
C        2.8831141389    0.1112131348    0.8796423121
C       -0.0721268835   -0.7501768269   -1.5482340165
C       -0.9562427320    0.0186977963    0.6408564415
C        4.5409893306    1.4361868554    2.1607008409
C        2.3999822006    2.4976820115    1.4098562315
N        0.4105884925    0.1039490798    1.1504319728
N       -0.9739421182   -0.9934564006   -0.4125977266
N        3.2429916057    1.3104468222    1.5068814347
O        3.6976910643   -0.8163375132    0.8703464555
H        2.1627726156   -0.7026036866   -1.6431743334
H       -0.4145145590    0.1169037266   -2.1226012507
H       -0.0539333083   -1.6218288733   -2.2106227654
H       -1.6357768565   -0.2768557180    1.4463938507
H       -1.2752031734    0.9901100546    0.2483731575
H        5.3085650106    1.7044930292    1.4282608094
H        4.8252517094    0.4978429504    2.6481771016
H        4.5028293896    2.2074139395    2.9364056879
H        1.7782681643    2.4739338694    0.5092479826
H        3.0205413020    3.3968391679    1.3426580661
H        1.7521906072    2.5774937586    2.2880475981
H        0.5593043557   -0.0557843615    2.1419374154
H       -1.9185124357   -1.2074565444   -0.7145060619
24   

C       -0.1382320024    0.6026915263    0.7023274642
C        1.2057588728    0.4101298231    0.4873261585
C        2.2644390786    1.1339570470    1.2817625756
C       -1.1795226408   -0.0480884113   -0.1548194268
C        0.6626828655   -1.2086973812   -1.3387987021
C        4.4763693466    1.2776104310    2.3770987720
C        3.5735892341   -0.9528828349    1.6935207801
N        1.6310827222   -0.4164764492   -0.5841634116
N       -0.5649576520   -0.4243990441   -1.4358407513
N        3.4415286721    0.5005213137    1.7036259909
O        2.1146075007    2.3249142941    1.5702844548
H       -0.4482292265    1.3030438987    1.4686801208
H       -1.5680831681   -0.9370331600    0.3528907306
H       -2.0082663565    0.6476364723   -0.3222172812
H        1.0496074564   -1.4126943388   -2.3421277958
H        0.4743131170   -2.1610676245   -0.8318781586
H        4.1797635572    1.4878322048    3.4094884162
H        4.6461904692    2.2245182754    1.8539241722
H        5.4241553797    0.7302166402    2.3839099915
H        4.0787865869   -1.2908034164    2.6038413756
H        4.1523076088   -1.2782896811    0.8240731669
H        2.5955176927   -1.4437849665    1.6778707606
H        2.5214643133   -0.2087922638   -1.0248226582
H       -1.2347130761   -0.8485384805   -2.0688316105
24   

C       -0.2050510978    0.6237473881    0.5648977268
C        1.1394761991    0.3586140981    0.4373379877
C        2.1743083608    1.0792362928    1.2626124855
C       -1.2339881893   -0.0272547456   -0.3066898972
C        0.5982431318   -1.3606983966   -1.2997146857
C        4.4210500265    1.3441767299    2.2545130113
C        3.6534680543   -0.9201381524    1.5359941823
N        1.5679688609   -0.5630823864   -0.5527018493
N       -0.5744784681   -0.5216028399   -1.5229870552
N        3.4205346193    0.5195732887    1.5844498739
O        1.9348004482    2.2105146512    1.6951487951
H       -0.5230561267    1.3791696021    1.2738081173
H       -1.6991449235   -0.8576337823    0.2346825429
H       -2.0117243493    0.6986156759   -0.5657546438
H        1.0250455000   -1.6610842920   -2.2617928569
H        0.3298589495   -2.2598882274   -0.7349821026
H        4.1504634449    1.4892129249    3.3051611714
H        4.4981510583    2.3219127676    1.7672671636
H        5.4068049189    0.8713337309    2.2026745110
H        4.2549560723   -1.2333793379    2.3952314547
H        4.1803594406   -1.1934113216    0.6171251374
H        2.7129351595   -1.4767753068    1.5955855964
H        2.4875883563   -0.4316699320   -0.9607436007
H       -1.2327607938   -0.9555953988   -2.1613189849
24   

C       -0.2084288138    0.7026824829    0.5511721891
C        1.1217869391    0.3453356131    0.5089160721
C        2.1446417033    1.0133686579    1.3920490474
C       -1.2327574569    0.0977617937   -0.3582346582
C        0.5418543956   -1.4083195436   -1.1849984048
C        4.4123298779    1.3454315843    2.3093115872
C        3.7602952118   -0.9039733834    1.4599612085
N        1.5279672549   -0.6479666741   -0.4211244648
N       -0.5456157303   -0.4937639447   -1.5137468930
N        3.4391498037    0.5112885018    1.6099201121
O        1.8489117084    2.0521185234    1.9901319308
H       -0.5175519118    1.4945088458    1.2234433509
H       -1.7923068134   -0.6721891112    0.1831380972
H       -1.9349225374    0.8698615469   -0.6894511345
H        0.9956187461   -1.7880233421   -2.1058141022
H        0.1734040689   -2.2548942136   -0.5958541755
H        4.1804536695    1.3836815841    3.3784037521
H        4.4015537290    2.3633041855    1.9052481564
H        5.4243825283    0.9499357711    2.1777239865
H        4.4531937054   -1.2188152959    2.2467613471
H        4.2241728116   -1.0932128461    0.4875659745
H        2.8661660944   -1.5254939094    1.5702714520
H        2.4701136604   -0.5932902157   -0.7924828319
H       -1.1989540013   -0.9062349260   -2.1711651153
24   

C       -0.1969882247    0.7508268734    0.4812432914
C        1.1042245176    0.2970928691    0.5409100342
C        2.1042574706    0.9249758844    1.4829106116
C       -1.2104287019    0.1806076623   -0.4624634789
C        0.4715616366   -1.5172665375   -1.0725924905
C        4.3610885636    1.3478460797    2.3890254237
C        3.8836929648   -0.8489174804    1.3234002945
N        1.4769265405   -0.7813416147   -0.3107451806
N       -0.5090644344   -0.5412258529   -1.5317568201
N        3.4396102492    0.5058937706    1.6298120181
O        1.7487609024    1.8587199194    2.2082778835
H       -0.4903235298    1.5899182665    1.1012305556
H       -1.8716856142   -0.5013512558    0.0822469553
H       -1.8168806789    0.9881634074   -0.8854752372
H        0.9388943888   -2.0051581377   -1.9336951075
H       -0.0010784907   -2.2804482927   -0.4450644310
H        4.1634738767    1.2554710949    3.4616718349
H        4.2492292897    2.3968698324    2.0947532284
H        5.3987974742    1.0615343543    2.1911067169
H        4.6864913079   -1.1467933252    2.0054069878
H        4.2588570721   -0.9101593385    0.2977098994
H        3.0744703628   -1.5703518714    1.4726982895
H        2.4314880491   -0.8105822856   -0.6494931164
H       -1.1565643125   -0.9447981562   -2.2004136613
