43

C      3.90592   -7.22379   -2.89305
C      3.10897   -6.83176   -0.64655
C      3.80019   -5.85824   -3.16132
C      3.00634   -5.47158   -0.91989
C      6.24286   -1.98080   -0.98147
C      5.09942   -2.73847   -0.84325
C      5.39632   -2.13518   -2.94573
C      3.56139   -7.72762   -1.62981
C      3.35233   -4.96395   -2.18250
C      3.65377   -9.18449   -1.28769
C     -0.39874   -1.09951   -2.22173
C     -0.46016   -2.59706   -1.89507
C      0.91105   -0.47944   -1.71858
C      0.76761   -3.34427   -2.43390
C      2.13744   -1.22717   -2.25910
C      2.08105   -2.72692   -1.92330
C      4.16130  -10.15099   -2.34281
C      3.29934   -3.47628   -2.50213
N      6.41938   -1.60797   -2.29834
N      4.56270   -2.83606   -2.11429
O      3.32670   -9.58668   -0.17684
H      4.25744   -7.88934   -3.67527
H      2.84074   -7.22857    0.32773
H      4.07585   -5.48144   -4.14373
H      2.64303   -4.80356   -0.14429
H      6.94593   -1.69034   -0.21114
H      4.64912   -3.21987    0.01175
H      5.19913   -2.04260   -4.00669
H     -1.25907   -0.57949   -1.78467
H     -0.46857   -0.96383   -3.31000
H     -0.51149   -2.72879   -0.80539
H     -1.37375   -3.04159   -2.30624
H      0.96815    0.57737   -2.00303
H      0.92794   -0.50833   -0.62033
H      0.71012   -4.40303   -2.16272
H      0.76301   -3.30256   -3.53304
H      2.18181   -1.10829   -3.35167
H      3.05349   -0.78400   -1.85744
H      2.10311   -2.81957   -0.82904
H      5.17422   -9.88374   -2.66269
H      3.52091  -10.13145   -3.23130
H      4.16797  -11.15825   -1.92513
H      3.25436   -3.37537   -3.59168
