51

C      1.19634   -5.24324   11.88739
C      1.98519   -7.28493   10.13502
C      4.63754   -7.39346   12.52644
C      2.38953   -5.95897   12.15629
C      2.78718   -6.99304   11.26754
C      0.42256   -5.53330   10.78535
C      0.82715   -6.57112    9.88498
C      3.25781   -5.72740   13.28410
C      3.34793   -5.63260   16.48479
C      3.50606   -3.14923   15.95128
C     -1.94667   -5.45817   10.68941
C     -2.29518   -9.72744    2.05323
C     -0.66701   -7.74020    6.74926
C     -0.36070   -8.77705    5.66094
C      0.38371   -7.75534    7.84982
C     -1.40743   -8.74571    4.55043
C      3.73124   -4.57409   15.44225
N      3.93446   -7.72044   11.46108
N      4.36798   -6.44716   13.45621
N      0.28044   -9.74741    2.51466
N      2.97978   -4.75003   14.19340
O     -1.29420  -11.33057    3.98266
O     -0.69498   -4.77363   10.52658
O      0.00998   -6.76249    8.81134
S     -1.02930  -10.03849    3.29498
H      0.85281   -4.42966   12.52014
H      2.33158   -8.07498    9.47991
H      5.55532   -7.95598   12.69603
H      2.29178   -5.53906   16.76491
H      3.51830   -6.63559   16.08620
H      3.95176   -5.51525   17.39135
H      2.44823   -2.97634   16.18867
H      3.81697   -2.41130   15.20548
H      4.07895   -2.97815   16.86736
H     -2.72387   -4.71934   10.48454
H     -2.05108   -5.82453   11.71858
H     -2.03695   -6.29256    9.98815
H     -2.16640  -10.49950    1.29364
H     -3.27186   -9.81678    2.53098
H     -2.14277   -8.73859    1.62073
H     -0.70936   -6.73422    6.31696
H     -1.64834   -7.94049    7.19436
H     -0.33094   -9.78135    6.09698
H      0.62737   -8.57680    5.22919
H      0.43227   -8.74032    8.33225
H      1.37717   -7.52123    7.44595
H     -2.40814   -8.96306    4.93555
H     -1.41101   -7.78561    4.02577
H      4.78434   -4.70655   15.18489
H      1.09455  -10.03938    3.05913
H      2.05622   -4.34104   14.16574
