52

C      3.35619   -2.03858    0.58034
C      2.16177   -2.03814   -0.14364
C     -2.98408    0.65126    0.82620
C     -3.19869   -1.74012    0.74126
C      2.13385    0.38002   -0.03309
C     -1.81431    0.59747    0.06818
C      3.95547   -0.84521    0.99956
C     -3.70068   -0.50823    1.16365
C     -2.02325   -1.81730   -0.01649
C      3.34461    0.37360    0.66398
C      1.53491   -0.82490   -0.43416
C     -1.32764   -0.65305   -0.37732
C      1.36799    1.63568   -0.32878
C      4.32841    0.74925    4.66388
C      3.87679   -0.33823    4.02508
C     -1.02647    1.86310   -0.18076
C     -4.97585   -0.41739    1.96816
C      2.40729   -0.67660    3.95692
C     -2.06320   -3.58499   -1.58473
C      4.71963    2.20539    0.08805
C      4.84068   -1.28375    3.33286
C      5.18488   -0.88331    1.87694
O      1.63209    2.46341   -1.17143
O      0.25825    1.66179    0.46186
O      6.09187   -1.83621    1.29821
O     -1.53893   -3.06194   -0.35728
O      3.88976    1.57026    1.07986
S      0.07448   -0.78226   -1.49741
H      3.84238   -2.97822    0.82456
H      1.70562   -2.96693   -0.47095
H     -3.33849    1.61716    1.18086
H     -3.69843   -2.66750    1.01038
H      5.39124    0.97772    4.71912
H      3.65129    1.45450    5.13960
H     -0.86639    2.06813   -1.24183
H     -1.50969    2.72548    0.28229
H     -5.80712   -0.07154    1.34230
H     -5.25586   -1.38821    2.38561
H     -4.87402    0.29218    2.79531
H      2.05532   -0.75415    2.92367
H      1.80111    0.07691    4.46662
H      2.21645   -1.64924    4.42847
H     -1.62522   -4.57730   -1.70828
H     -1.77724   -2.95047   -2.43125
H     -3.15640   -3.66817   -1.53904
H      5.09918    3.11737    0.55254
H      4.13489    2.45590   -0.80208
H      5.55751    1.55291   -0.18750
H      4.43818   -2.30306    3.31418
H      5.78352   -1.31498    3.89419
H      5.64069    0.11181    1.89837
H      6.85370   -1.91632    1.89416
