71

C      8.13435   -0.54115    1.82640
C      4.28831   -2.93775    6.96004
C      7.37937   -1.03048    2.89351
C      5.62306   -3.00198    6.55791
C     10.04587   -1.82236    2.56980
C      9.46859   -0.92064    1.65431
C      3.35133   -2.27107    6.17269
C      7.94772   -1.91507    3.82275
C      9.30651   -2.30387    3.63695
C      3.81564   -1.66519    4.97799
C      5.98294   -2.37807    5.35189
C      1.14475   -1.30163    5.88479
C     10.31647   -0.45349    0.52593
C      2.99260    0.57486    0.75347
C      3.85262   -0.70637    0.53841
C      2.34200    0.40661    2.14190
C      3.75555   -1.49744    1.86087
C     11.14284    4.00842   -0.15743
C      9.47651    1.97783    0.54691
C     10.86950    1.43194   -0.99927
C     10.32932    5.09828   -0.90912
C      1.82108   -0.33668    4.91329
C      3.37425   -0.43411    2.90858
C     10.28730    2.76759   -0.50117
C      2.28870    0.92264    5.66862
C      1.42312   -3.12301    7.49217
C     11.12579   -3.64273    4.45003
N      5.09610   -1.71551    4.59847
N      1.97379   -2.22263    6.48383
N      2.89590   -1.01142    4.17509
N      9.94247    0.72348   -0.09582
N      7.30662   -2.45661    4.92944
O     -0.05545   -1.21165    6.13525
O     11.30988   -1.07360    0.13489
O      9.69499    3.54035   -3.07960
O      7.87463    3.88362   -1.31401
O      9.78528   -3.17540    4.58994
S      9.29534    3.79190   -1.68619
H      7.65165    0.11036    1.10569
H      3.98747   -3.42122    7.88320
H      6.34718   -0.74368    3.01751
H      6.35894   -3.52535    7.16102
H     11.07185   -2.12697    2.40192
H      3.62681    1.46712    0.74287
H      2.24019    0.71346   -0.02749
H      3.49884   -1.30139   -0.30796
H      4.89184   -0.44053    0.32085
H      2.11060    1.36564    2.61442
H      1.40679   -0.15845    2.05087
H      2.94165   -2.23074    1.81959
H      4.67098   -2.03196    2.11180
H     12.15313    3.90912   -0.55983
H     11.20808    4.18721    0.91775
H      9.83962    2.10501    1.57321
H      8.39748    2.14577    0.51167
H     10.72784    1.21859   -2.06216
H     11.92048    1.27935   -0.73011
H      9.71447    5.73536   -0.27205
H     10.87462    5.68675   -1.64725
H      1.03848   -0.06355    4.20960
H      4.25275    0.19661    3.11083
H      3.05424    0.67297    6.40996
H      1.44254    1.38922    6.18105
H      2.71482    1.64754    4.96896
H      1.77590   -2.85573    8.49495
H      1.71529   -4.15405    7.27159
H      0.33870   -3.03146    7.46528
H     11.29446   -4.32330    5.28550
H     11.84006   -2.81290    4.50305
H     11.25819   -4.18088    3.50471
H      7.90787   -3.04068    5.49696
