26   

C        0.3833039994   -0.4961921859   -0.3399102573
C        7.4795932364   -0.2461205917    4.7883797983
C        1.5796904935    0.1762214603   -0.0742128804
C       -0.1360160952   -1.3877800842    0.6027434882
C        6.9671840313   -0.6875822358    3.5650173858
C        6.6066200144    0.1751776381    5.7951812645
C        2.2544509229   -0.0445450359    1.1325677807
C        0.5399918251   -1.6030473988    1.8093929586
C        5.5836937789   -0.7062928111    3.3506196706
C        5.2240148959    0.1516907355    5.5779179084
C        1.7419217659   -0.9349446795    2.0873292042
C        4.6975707677   -0.2883288725    4.3541982531
C        2.4376097912   -1.1515483669    3.3572829463
C        3.2500796820   -0.3257621338    4.1367681764
H       -0.1412098685   -0.3255152423   -1.2732790349
H        8.5505397097   -0.2321590362    4.9566204780
H        1.9841277238    0.8712041938   -0.8012023294
H       -1.0637279606   -1.9110949439    0.4009159896
H        7.6406755278   -1.0184606715    2.7827032552
H        6.9997197052    0.5179706364    6.7455530906
H        3.1791356025    0.4840986275    1.3342571980
H        0.1262925506   -2.2926853300    2.5358896249
H        5.1929642976   -1.0546435247    2.4013226318
H        4.5553879141    0.4757390549    6.3668876874
H        2.3066478120   -2.1434000953    3.7732226601
H        2.6990363394    0.4356825085    4.6757303506
26   

C        0.6188707625   -0.5015164666   -0.3404998765
C        7.3975165478   -0.1895055004    4.5746701886
C        1.7690882814    0.1881652980    0.0528603315
C        0.0251728841   -1.4158944515    0.5336124180
C        6.7884945379   -0.6964063806    3.4233484907
C        6.6082199465    0.2577200009    5.6375131150
C        2.3232883978   -0.0374937304    1.3185693690
C        0.5818236152   -1.6381900470    1.7985295525
C        5.3923793813   -0.7551582349    3.3367902405
C        5.2127107866    0.1966360119    5.5474700519
C        1.7370586981   -0.9534901319    2.2057626523
C        4.5882051539   -0.3088178810    4.3969351591
C        2.3031591079   -1.1803296901    3.5392687423
C        3.1259291432   -0.3847065777    4.3186123963
H        0.1871560791   -0.3260669253   -1.3194027408
H        8.4785600467   -0.1456018427    4.6441480316
H        2.2308846493    0.9011333954   -0.6205784103
H       -0.8682578313   -1.9515214869    0.2334190397
H        7.3969235029   -1.0478701102    2.5978875144
H        7.0764204822    0.6497333626    6.5332505901
H        3.2107833235    0.5088608265    1.6166314949
H        0.1097524470   -2.3460897226    2.4697127256
H        4.9305453278   -1.1577488321    2.4425736891
H        4.6110417931    0.5418454149    6.3801079704
H        2.0528613512   -2.1338163103    3.9888980831
H        2.5945402015    0.3047258773    4.9637953830
26   

C        0.8385565090   -0.4905490335   -0.3317119356
C        7.3150127432   -0.1537945655    4.3740008340
C        1.9048633208    0.2505751422    0.1844740325
C        0.2188668897   -1.4590694952    0.4619497688
C        6.6349296533   -0.7647945714    3.3171717705
C        6.5960393489    0.3626712923    5.4548751325
C        2.3487895544    0.0231324445    1.4925574933
C        0.6668150822   -1.6852764229    1.7685993856
C        5.2384112178   -0.8593344894    3.3431982152
C        5.1996893692    0.2683143138    5.4764618439
C        1.7372670033   -0.9493023998    2.3005710355
C        4.5026497956   -0.3418679163    4.4217904282
C        2.1831580841   -1.1832362847    3.6795195389
C        3.0394918692   -0.4517754391    4.4675231481
H        0.4915186750   -0.3129011757   -1.3433455220
H        8.3967251183   -0.0831160812    4.3567210276
H        2.3869847333    1.0051757288   -0.4264517960
H       -0.6110313219   -2.0339099933    0.0669176493
H        7.1885684289   -1.1696253543    2.4777134317
H        7.1196661937    0.8343183207    6.2786388182
H        3.1710613669    0.6117979255    1.8829092457
H        0.1740060753   -2.4363335291    2.3747527077
H        4.7247518724   -1.3440088662    2.5208362660
H        4.6549101126    0.6689945078    6.3232446764
H        1.7952869972   -2.0787861770    4.1502390103
H        2.5496040106    0.1470586534    5.2260995095
26   

C        1.0328928681   -0.4710536570   -0.3081002619
C        7.2298948710   -0.1366153132    4.1972982313
C        2.0003316020    0.3252936076    0.3101970014
C        0.4133869684   -1.4945831607    0.4131417125
C        6.5034134041   -0.8516183657    3.2415811212
C        6.5648308549    0.4529743602    5.2751037595
C        2.3446431620    0.0990452264    1.6481111709
C        0.7635486072   -1.7210736197    1.7492401911
C        5.1148194499   -0.9781928033    3.3662323088
C        5.1757918116    0.3284681159    5.3940013909
C        1.7331473021   -0.9291370042    2.3847261861
C        4.4319337776   -0.3872667625    4.4424104714
C        2.0722477920   -1.1659128237    3.7954234415
C        2.9765767456   -0.5276293742    4.5951040238
H        0.7622567118   -0.2938920680   -1.3428691482
H        8.3058560553   -0.0416882427    4.1041719144
H        2.4831933643    1.1215644122   -0.2446549695
H       -0.3408159068   -2.1122178485   -0.0611053292
H        7.0148008374   -1.3120209482    2.4039802284
H        7.1248093207    1.0050409182    6.0213284804
H        3.0915368662    0.7301771003    2.1160049078
H        0.2718476306   -2.5162613419    2.2971496985
H        4.5661439291   -1.5424021184    2.6207612781
H        4.6740524099    0.7880640437    6.2374043742
H        1.5340856157   -1.9731594344    4.2780455347
H        2.5479039247   -0.0470468190    5.4665796985
26   

C        1.2068014398   -0.4515407715   -0.2812606595
C        7.1495649197   -0.1240912977    4.0397074175
C        2.0738101361    0.3953595342    0.4141217105
C        0.6005088968   -1.5203115943    0.3834831648
C        6.3996644245   -0.9324682115    3.1813945680
C        6.5209116299    0.5277706970    5.1034879033
C        2.3297731197    0.1750333015    1.7726436417
C        0.8642032375   -1.7415919874    1.7401736371
C        5.0245680457   -1.0909577896    3.3902808794
C        5.1445792261    0.3723975831    5.3051304862
C        1.7308564102   -0.8981437000    2.4529201201
C        4.3782722717   -0.4382306034    4.4529855975
C        1.9778081076   -1.1317102303    3.8850696819
C        2.9363932139   -0.6092100946    4.6942701585
H        1.0040165898   -0.2789257848   -1.3321816240
H        8.2154549145   -0.0045332710    3.8818017102
H        2.5476345398    1.2256225310   -0.0969287919
H       -0.0762445377   -2.1773558246   -0.1508088170
H        6.8821697018   -1.4398719976    2.3539003866
H        7.0993902333    1.1524436343    5.7745447911
H        3.0004747189    0.8432300287    2.3006851827
H        0.3852903919   -2.5729421769    2.2439448621
H        4.4562157391   -1.7252621701    2.7196074112
H        4.6702284750    0.8819542756    6.1355723233
H        1.2931177294   -1.8162649256    4.3719506704
H        2.5824949480   -0.2754343186    5.6626804795
26   

C        1.3461345820   -0.4384851086   -0.2495895990
C        7.0740490675   -0.1158236312    3.9182127718
C        2.1328468321    0.4459876095    0.4931657079
C        0.7477971327   -1.5319678426    0.3817049971
C        6.3168452685   -0.9902653432    3.1340653340
C        6.4680627180    0.5706319220    4.9735828516
C        2.3157802530    0.2385408870    1.8654033488
C        0.9398472800   -1.7404156677    1.7524307916
C        4.9575527776   -1.1803351226    3.4092626187
C        5.1067386430    0.3839564325    5.2403706378
C        1.7244372075   -0.8588764594    2.5116147502
C        4.3346705475   -0.4932925287    4.4635820812
C        1.8974717575   -1.0806789140    3.9581562965
C        2.9080072388   -0.6951200967    4.7726542423
H        1.1997524227   -0.2761539887   -1.3114494257
H        8.1279750553    0.0285259186    3.7090977666
H        2.6014759516    1.2946249514    0.0082162264
H        0.1331770185   -2.2182592791   -0.1895914362
H        6.7811044614   -1.5236116099    2.3124935675
H        7.0524829315    1.2466733529    5.5872229225
H        2.9258406106    0.9328400544    2.4319792867
H        0.4697850055   -2.5911986414    2.2315211468
H        4.3807828126   -1.8633336356    2.7960061584
H        4.6478445230    0.9207806464    6.0622915313
H        1.0887644521   -1.6131561329    4.4451971778
H        2.6302705447   -0.5297229612    5.8071852282
26   

C        1.4393340784   -0.4382097284   -0.2215058495
C        7.0156584894   -0.1044845856    3.8408911608
C        2.1859842218    0.4663676656    0.5384853920
C        0.8297833093   -1.5303691427    0.4016970868
C        6.2607337601   -1.0116299731    3.0922281971
C        6.4218182904    0.5809607580    4.9040263206
C        2.3175857971    0.2800530133    1.9195927677
C        0.9711128682   -1.7174946100    1.7816692099
C        4.9160754243   -1.2350760048    3.4107387463
C        5.0745966843    0.3607877954    5.2135928513
C        1.7150086333   -0.8157118196    2.5569122643
C        4.3061037898   -0.5490437492    4.4725014654
C        1.8378587037   -1.0165489958    4.0133602846
C        2.8927851185   -0.7840488366    4.8243794472
H        1.3329700497   -0.2926921602   -1.2905330465
H        8.0583396175    0.0662581080    3.5980542653
H        2.6638528147    1.3135070820    0.0600077516
H        0.2462862101   -2.2322516597   -0.1831124165
H        6.7150984940   -1.5437056408    2.2643440223
H        7.0045974909    1.2823952356    5.4900868172
H        2.8980999904    0.9870443130    2.5013988697
H        0.4942971714   -2.5671568007    2.2560909277
H        4.3382872958   -1.9410553222    2.8250070133
H        4.6230072247    0.8966595203    6.0401905334
H        0.9402795155   -1.3733735057    4.5052071210
H        2.6796396683   -0.8025412490    5.8869772323
26   

C        1.5728313652   -0.9307091929   -0.2463393423
C        6.8838790227    0.3878011766    3.8644226274
C        2.6635597416   -1.5469929343    0.3735516618
C        0.5696850128   -0.3483931187    0.5331938651
C        5.8028874150    1.0080923000    3.2316041484
C        6.6520387252   -0.6118402643    4.8131290255
C        2.7467281888   -1.5836655836    1.7704501659
C        0.6614138793   -0.3801435290    1.9295562431
C        4.4933091397    0.6310421051    3.5516465259
C        5.3410312337   -0.9913748429    5.1237315678
C        1.7490723865   -0.9973971806    2.5639639447
C        4.2476890361   -0.3753097701    4.4980020711
C        1.8227902458   -1.0366415978    4.0384166303
C        2.8700834146   -0.7758785342    4.8486826206
H        1.5050643617   -0.9048685082   -1.3280235215
H        7.8985644138    0.6813799756    3.6204399533
H        3.4464209098   -1.9971056388   -0.2259944431
H       -0.2800678178    0.1272245174    0.0569384791
H        5.9767432581    1.7814958838    2.4923133733
H        7.4871333011   -1.0929828104    5.3093451414
H        3.5959855635   -2.0626063440    2.2446311678
H       -0.1205893384    0.0737021125    2.5269615386
H        3.6595237806    1.1157111765    3.0562972965
H        5.1696333451   -1.7674027638    5.8604820547
H        0.9145576504   -1.3604728385    4.5335066527
H        2.6656305073   -0.8274324471    5.9118888879
26   

C        1.5457718130   -0.9758572540   -0.2497047175
C        6.8859790941    0.4252691016    3.9017862605
C        2.6288983084   -1.5909783576    0.3841681397
C        0.5563233547   -0.3532202149    0.5158391718
C        5.7948196581    1.0376764086    3.2791634787
C        6.6715021317   -0.6040715389    4.8222195312
C        2.7180497782   -1.5865768918    1.7811350948
C        0.6539233207   -0.3438224385    1.9121517362
C        4.4923135171    0.6233877294    3.5813796424
C        5.3677367120   -1.0209306372    5.1150211792
C        1.7339073855   -0.9599924314    2.5614257367
C        4.2634130491   -0.4129854050    4.4998263612
C        1.8115432713   -0.9581208593    4.0346693904
C        2.8948944021   -0.8509440591    4.8343568308
H        1.4732277966   -0.9823246023   -1.3313706290
H        7.8950592916    0.7481130478    3.6719248483
H        3.4011343532   -2.0725820256   -0.2046042961
H       -0.2877055886    0.1215455105    0.0286823782
H        5.9552334931    1.8343434695    2.5618541339
H        7.5146022607   -1.0791492794    5.3106794205
H        3.5614013092   -2.0667264307    2.2644009548
H       -0.1185626060    0.1411035577    2.4973604399
H        3.6518188087    1.1045113397    3.0941230909
H        5.2113913100   -1.8196286730    5.8305583243
H        0.8649678934   -1.0930374480    4.5452369874
H        2.7310805590   -1.0910822737    5.8785720681
26   

C        1.4641812948   -1.0142696449   -0.2837708022
C        6.9374415312    0.4534227179    3.9785083071
C        2.5749908216   -1.5904560106    0.3383258912
C        0.4839484556   -0.3872366949    0.4896776984
C        5.8558822783    1.0394792053    3.3154394168
C        6.7135082200   -0.5803464509    4.8914295988
C        2.7012279870   -1.5430061734    1.7316468107
C        0.6179753422   -0.3348315213    1.8819841066
C        4.5531870392    0.5946427721    3.5696761378
C        5.4101016386   -1.0277477939    5.1367678971
C        1.7261975095   -0.9118627249    2.5206768110
C        4.3141467351   -0.4465830274    4.4808867565
C        1.8400553175   -0.8673681310    3.9892302367
C        2.9466124208   -0.9145482240    4.7680329607
H        1.3628844891   -1.0546221978   -1.3623976194
H        7.9463647328    0.8003553124    3.7860587733
H        3.3397818621   -2.0760718946   -0.2568604515
H       -0.3815790626    0.0573056606    0.0117894652
H        6.0238579653    1.8401589926    2.6043340028
H        7.5490440139   -1.0350119381    5.4113257633
H        3.5658349057   -1.9958575049    2.2034671323
H       -0.1492102183    0.1530263661    2.4716778912
H        3.7216744510    1.0586649605    3.0515014232
H        5.2484558497   -1.8293406468    5.8478501184
H        0.8998579110   -0.8077965795    4.5251671574
H        2.8003200527   -1.3411038481    5.7536278045
26   

C        1.3353405822   -1.0518156580   -0.3281296445
C        7.0146685264    0.4737160847    4.0951118388
C        2.5027544646   -1.5521133229    0.2544158262
C        0.3594132672   -0.4573238061    0.4755401215
C        5.9659891793    1.0139537923    3.3461607610
C        6.7546085719   -0.5381973626    5.0225487080
C        2.6905238062   -1.4610539729    1.6386498232
C        0.5537340044   -0.3618415591    1.8583677686
C        4.6596648014    0.5449744348    3.5284496026
C        5.4482469897   -1.0093997810    5.1971240796
C        1.7200029053   -0.8619255243    2.4585782658
C        4.3839256918   -0.4750470931    4.4540162597
C        1.8966032722   -0.7745877339    3.9171624202
C        3.0129778578   -0.9659107416    4.6681191572
H        1.1866512320   -1.1262388857   -1.3994391639
H        8.0259899533    0.8395935388    3.9583133127
H        3.2636287643   -2.0136140079   -0.3645394610
H       -0.5498495027   -0.0717670696    0.0285959512
H        6.1622404219    1.7986979984    2.6245791907
H        7.5643112481   -0.9572548430    5.6090163532
H        3.5986982141   -1.8582493050    2.0775296805
H       -0.2125252982    0.0995674144    2.4701166160
H        3.8551305338    0.9770536611    2.9443322267
H        5.2604217297   -1.7930222676    5.9216558602
H        1.0051594466   -0.5265173398    4.4813071198
H        2.8654530583   -1.5650338266    5.5590502043
26   

C        1.1705972675   -1.1054257897   -0.3562461986
C        7.0866222006    0.4958547355    4.2538874326
C        2.4041529416   -1.5069926905    0.1628707598
C        0.2036481070   -0.5642601892    0.4944814115
C        6.0941624889    0.9789248000    3.3971101482
C        6.7689515875   -0.4793176894    5.2024204881
C        2.6678130746   -1.3694964248    1.5308387423
C        0.4724482459   -0.4237995153    1.8608966810
C        4.7863077994    0.4886999359    3.4916791909
C        5.4613646560   -0.9706815661    5.2909686419
C        1.7067090900   -0.8232035636    2.3977480255
C        4.4529880106   -0.4949113128    4.4377719916
C        1.9637533199   -0.6898890550    3.8390264198
C        3.0798227715   -1.0052612112    4.5598578193
H        0.9636586437   -1.2155395018   -1.4147495872
H        8.0988177113    0.8779843177    4.1845193517
H        3.1574451566   -1.9286007538   -0.4927670462
H       -0.7564067332   -0.2552727272    0.0969554469
H        6.3351574239    1.7364492812    2.6601294405
H        7.5346717090   -0.8539999970    5.8721147064
H        3.6266909316   -1.6926383212    1.9197265141
H       -0.2886500737   -0.0057944126    2.5092007983
H        4.0257522748    0.8788786088    2.8250303867
H        5.2289767171   -1.7243343278    6.0341402126
H        1.1532287418   -0.2702576105    4.4231062173
H        2.9235216830   -1.7514348912    5.3299129529
26   

C        0.9809276332   -1.1725710104   -0.3759346455
C        7.1560024025    0.5224899831    4.4418828203
C        2.2774814590   -1.4660034453    0.0548568598
C        0.0390164757   -0.6919722889    0.5371777717
C        6.2457263963    0.9463783647    3.4700520664
C        6.7594513920   -0.4102855043    5.4034568179
C        2.6295997045   -1.2796632437    1.3969407313
C        0.3952489896   -0.5048361879    1.8777863210
C        4.9412562240    0.4382619765    3.4618460942
C        5.4550614452   -0.9177804935    5.3908538316
C        1.6939252956   -0.7944049628    2.3251050306
C        4.5298448684   -0.5020856776    4.4204565529
C        2.0476176613   -0.6125260341    3.7387183635
C        3.1587492670   -1.0277267593    4.4319140340
H        0.7059692954   -1.3198158338   -1.4142574294
H        8.1654359946    0.9178962896    4.4514885779
H        3.0109720957   -1.8419019878   -0.6492634636
H       -0.9690133742   -0.4663922146    0.2082197006
H        6.5478455470    1.6721390153    2.7236686804
H        7.4611633720   -0.7393191281    6.1614545586
H        3.6363702473   -1.5200487662    1.7189043774
H       -0.3465988896   -0.1358763460    2.5762833189
H        4.2430963130    0.7828720090    2.7076230743
H        5.1594533011   -1.6372251884    6.1454303875
H        1.3350793149   -0.0493301249    4.3295907117
H        2.9935739527   -1.8874532237    5.0703640116
26   

C        0.7808890493   -1.2475594241   -0.3984113924
C        7.2293395692    0.5545268943    4.6409302989
C        2.1272590471   -1.4426592958   -0.0780679438
C       -0.1112048525   -0.8160324240    0.5867784280
C        6.4239239279    0.9324907885    3.5630406932
C        6.7388229258   -0.3441563228    5.5919333965
C        2.5789635470   -1.2060651192    1.2257947637
C        0.3441001409   -0.5813306538    1.8894328702
C        5.1304493122    0.4115668763    3.4379843680
C        5.4447751209   -0.8621654419    5.4638472213
C        1.6934085966   -0.7720619192    2.2244121727
C        4.6259597156   -0.4921036902    4.3859685320
C        2.1578759491   -0.5400479043    3.5956709670
C        3.2656144878   -1.0267294776    4.2692673555
H        0.4291232785   -1.4326484743   -1.4070803787
H        8.2303324314    0.9589091613    4.7404267187
H        2.8221148680   -1.7808627547   -0.8382608064
H       -1.1567674597   -0.6653669381    0.3432026097
H        6.7989972810    1.6322011428    2.8249183060
H        7.3593727504   -0.6384925283    6.4306914730
H        3.6235957640   -1.3683552277    1.4653951602
H       -0.3580176623   -0.2515939693    2.6462447658
H        4.5112919681    0.7176828404    2.6025561003
H        5.0734638558   -1.5545938527    6.2102589190
H        1.5455427621    0.1363452183    4.1800456594
H        3.0960898694   -1.9672396665    4.7798116262
26   

C        0.5719528774   -1.3506191727   -0.4057441636
C        7.2868508193    0.6066136487    4.8608832702
C        1.9481345175   -1.4925093487   -0.2056152518
C       -0.2412874140   -0.9173415201    0.6450339014
C        6.5921076417    0.9787323096    3.7063598499
C        6.7095092325   -0.2965037023    5.7576991400
C        2.5082547472   -1.2004373130    1.0439070218
C        0.3222669365   -0.6296485126    1.8936290547
C        5.3224191824    0.4469067101    3.4506272931
C        5.4385042407   -0.8232345225    5.4999320139
C        1.7020788707   -0.7673012048    2.1067256792
C        4.7316146768   -0.4582310334    4.3443728015
C        2.2851939880   -0.4799935910    3.4189424652
C        3.3957663806   -0.9998907843    4.0864675477
H        0.1363200788   -1.5775615303   -1.3722560902
H        8.2695673757    1.0184085028    5.0611725727
H        2.5819895615   -1.8315929544   -1.0169949568
H       -1.3090752084   -0.8062481209    0.4942750310
H        7.0348608794    1.6815716514    3.0098885987
H        7.2446623273   -0.5875525403    6.6544392101
H        3.5755387022   -1.3175047183    1.1935357927
H       -0.3177576981   -0.2991156363    2.7033553250
H        4.7871518563    0.7437174498    2.5558742187
H        4.9975321220   -1.5190058377    6.2041961094
H        1.7641115966    0.2862178297    3.9804694119
H        3.2349702095   -1.9964984423    4.4799612000
