26   

C        0.3833040708   -0.4961924104   -0.3399103330
C        7.4795932439   -0.2461203486    4.7883797707
C        1.5796905543    0.1762212680   -0.0742129765
C       -0.1360160488   -1.3877802221    0.6027434795
C        6.9671840613   -0.6875820174    3.5650173575
C        6.6066199928    0.1751777762    5.7951812540
C        2.2544509535   -0.0445451166    1.1325677238
C        0.5399918326   -1.6030474231    1.8093929873
C        5.5836938056   -0.7062927134    3.3506196500
C        5.2240148749    0.1516907498    5.5779179152
C        1.7419217659   -0.9349446795    2.0873292042
C        4.6975707677   -0.2883288725    4.3541982531
C        2.4376097912   -1.1515483669    3.3572829463
C        3.2500796820   -0.3257621338    4.1367681764
H       -0.1412097694   -0.3255155671   -1.2732791473
H        8.5505397201   -0.2321586840    4.9566204412
H        1.9841278085    0.8712039312   -0.8012024784
H       -1.0637278995   -1.9110951140    0.4009160026
H        7.6406755844   -1.0184603676    2.7827032125
H        6.9997196642    0.5179707995    6.7455530780
H        3.1791356401    0.4840985481    1.3342571185
H        0.1262925431   -2.2926853034    2.5358896975
H        5.1929643475   -1.0546434208    2.4013225978
H        4.5553878797    0.4757390069    6.3668877120
H        2.3066477221   -2.1434000570    3.7732227234
H        2.6990363367    0.4356825083    4.6757303482
26   

C        0.6188706884   -0.5015164145   -0.3404998300
C        7.3975165452   -0.1895055793    4.5746702552
C        1.7690880548    0.1881655555    0.0528604720
C        0.0251730207   -1.4158946577    0.5336123345
C        6.7884945510   -0.6964068188    3.4233487052
C        6.6082199296    0.2577203541    5.6375129858
C        2.3232882180   -0.0374935119    1.3185694820
C        0.5818237820   -1.6381902695    1.7985294491
C        5.3923793934   -0.7551586183    3.3367904148
C        5.2127107725    0.1966363933    5.5474698948
C        1.7370586981   -0.9534901319    2.2057626523
C        4.5882051539   -0.3088178810    4.3969351591
C        2.3031591079   -1.1803296901    3.5392687423
C        3.1259291432   -0.3847065777    4.3186123963
H        0.1871559491   -0.3260668277   -1.3194026604
H        8.4785600433   -0.1456019865    4.6441481453
H        2.2308842641    0.9011338501   -0.6205781702
H       -0.8682575645   -1.9515218697    0.2334188794
H        7.3969235270   -1.0478708792    2.5978878773
H        7.0764204502    0.6497340143    6.5332503399
H        3.2107830310    0.5088611855    1.6166316896
H        0.1097527586   -2.3460901314    2.4697125262
H        4.9305453406   -1.1577494784    2.4425739813
H        4.6110417756    0.5418461141    6.3801076768
H        2.0528612508   -2.1338162567    3.9888981411
H        2.5945401949    0.3047258030    4.9637954570
26   

C        0.8385565732   -0.4905490707   -0.3317119428
C        7.3150127220   -0.1537945149    4.3740007869
C        1.9048634212    0.2505750628    0.1844740076
C        0.2188668818   -1.4590694690    0.4619497850
C        6.6349296365   -0.7647946178    3.3171717769
C        6.5960393317    0.3626714102    5.4548750569
C        2.3487896295    0.0231323766    1.4925574733
C        0.6668150455   -1.6852763786    1.7685994113
C        5.2384112084   -0.8593345534    3.3431982421
C        5.1996893578    0.2683144073    5.4764617923
C        1.7372670033   -0.9493023998    2.3005710355
C        4.5026497956   -0.3418679163    4.4217904282
C        2.1831580841   -1.1832362847    3.6795195389
C        3.0394918692   -0.4517754391    4.4675231481
H        0.4915187724   -0.3129012329   -1.3433455423
H        8.3967250919   -0.0831160013    4.3567209533
H        2.3869848832    1.0051756084   -0.4264518332
H       -0.6110313531   -2.0339099391    0.0669176756
H        7.1885684078   -1.1696254632    2.4777134645
H        7.1196661742    0.8343185211    6.2786386982
H        3.1710614810    0.6117978106    1.8829092138
H        0.1740060030   -2.4363334419    2.3747527586
H        4.7247518594   -1.3440089897    2.5208363304
H        4.6549100923    0.6689946642    6.3232445891
H        1.7952870431   -2.0787862095    4.1502389864
H        2.5496040089    0.1470586909    5.2260994787
26   

C        1.0328927985   -0.4710535434   -0.3081002271
C        7.2298948877   -0.1366154445    4.1972982691
C        2.0003314848    0.3252937476    0.3101970717
C        0.4133869922   -1.4945831466    0.4131416868
C        6.5034134117   -0.8516185457    3.2415812058
C        6.5648308723    0.4529743635    5.2751037250
C        2.3446430818    0.0990453067    1.6481112185
C        0.7635486754   -1.7210736705    1.7492401464
C        5.1148194523   -0.9781929127    3.3662323723
C        5.1757918167    0.3284681943    5.3940013299
C        1.7331473021   -0.9291370042    2.3847261861
C        4.4319337776   -0.3872667625    4.4424104714
C        2.0722477920   -1.1659128237    3.7954234415
C        2.9765767456   -0.5276293742    4.5951040238
H        0.7622566192   -0.2938918963   -1.3428690964
H        8.3058560776   -0.0416884380    4.1041719600
H        2.4831931745    1.1215646297   -0.2446548506
H       -0.3408158391   -2.1122178625   -0.0611053898
H        7.0148008429   -1.3120212332    2.4039803700
H        7.1248093476    1.0050409698    6.0213284032
H        3.0915367437    0.7301772113    2.1160049783
H        0.2718477893   -2.5162614825    2.2971496010
H        4.5661439317   -1.5424022749    2.6207613785
H        4.6740524108    0.7880642436    6.2374042429
H        1.5340856254   -1.9731594459    4.2780455262
H        2.5479039265   -0.0470468037    5.4665796909
26   

C        1.2068016253   -0.4515408789   -0.2812607303
C        7.1495648836   -0.1240911357    4.0397072557
C        2.0738103836    0.3953593675    0.4141216285
C        0.6005089215   -1.5203115829    0.3834831334
C        6.3996644177   -0.9324682265    3.1813945499
C        6.5209115868    0.5277709523    5.1034876798
C        2.3297732729    0.1750331912    1.7726435901
C        0.8642031621   -1.7415919196    1.7401736405
C        5.0245680600   -1.0909578840    3.3902809430
C        5.1445792019    0.3723977515    5.3051303480
C        1.7308564102   -0.8981437000    2.4529201201
C        4.3782722717   -0.4382306034    4.4529855975
C        1.9778081076   -1.1317102303    3.8850696819
C        2.9363932139   -0.6092100946    4.6942701585
H        1.0040168666   -0.2789259457   -1.3321817224
H        8.2154548590   -0.0045330337    3.8818014737
H        2.5476349202    1.2256222618   -0.0969289178
H       -0.0762445413   -2.1773557746   -0.1508088611
H        6.8821697034   -1.4398720715    2.3539004093
H        7.0993901736    1.1524440456    5.7745444369
H        3.0004749396    0.8432298721    2.3006851023
H        0.3852901977   -2.5729420271    2.2439448855
H        4.4562157742   -1.7252623841    2.7196075696
H        4.6702284403    0.8819545264    6.1355721282
H        1.2931177745   -1.8162649822    4.3719506540
H        2.5824949420   -0.2754342754    5.6626804624
26   

C        1.3461343329   -0.4384848734   -0.2495895199
C        7.0740491300   -0.1158239283    3.9182129477
C        2.1328464159    0.4459879430    0.4931658494
C        0.7477971791   -1.5319678269    0.3817049798
C        6.3168453561   -0.9902657913    3.1340656514
C        6.4680627170    0.5706319273    4.9735827968
C        2.3157799671    0.2385410944    1.8654034521
C        0.9398474536   -1.7404157712    1.7524307374
C        4.9575528273   -1.1803354129    3.4092628467
C        5.1067386052    0.3839565867    5.2403704939
C        1.7244372075   -0.8588764594    2.5116147502
C        4.3346705475   -0.4932925287    4.4635820812
C        1.8974717575   -1.0806789140    3.9581562965
C        2.9080072388   -0.6951200967    4.7726542423
H        1.1997520674   -0.2761536548   -1.3114493168
H        8.1279751498    0.0285254977    3.7090980164
H        2.6014752864    1.2946254728    0.0082164568
H        0.1331771792   -2.2182593336   -0.1895914924
H        6.7811045945   -1.5236123177    2.3124940803
H        7.0524829071    1.2466734639    5.5872227725
H        2.9258401615    0.9328403469    2.4319794604
H        0.4697853897   -2.5911988968    2.2315210285
H        4.3807828723   -1.8633340641    2.7960065313
H        4.6478444331    0.9207810086    6.0622912220
H        1.0887644995   -1.6131562239    4.4451971570
H        2.6302705353   -0.5297228998    5.8071852159
26   

C        1.4393339705   -0.4382097321   -0.2215058384
C        7.0156585116   -0.1044846094    3.8408912500
C        2.1859842171    0.4663676166    0.5384853574
C        0.8297831555   -1.5303690996    0.4016971326
C        6.2607338165   -1.0116300404    3.0922283007
C        6.4218182664    0.5809607929    4.9040263462
C        2.3175858547    0.2800529603    1.9195927296
C        0.9711127623   -1.7174945591    1.7816692517
C        4.9160754639   -1.2350760511    3.4107387992
C        5.0745966520    0.3607878339    5.2135928368
C        1.7150086333   -0.8157118196    2.5569122643
C        4.3061037898   -0.5490437492    4.4725014654
C        1.8378587037   -1.0165489958    4.0133602846
C        2.8927851185   -0.7840488366    4.8243794472
H        1.3329698913   -0.2926921611   -1.2905330308
H        8.0583396511    0.0662580676    3.5980543960
H        2.6638528438    1.3135069977    0.0600076892
H        0.2462859803   -2.2322515839   -0.1831123352
H        6.7150985874   -1.5437057556    2.2643441762
H        7.0045974372    1.2823953093    5.4900868285
H        2.8981001421    0.9870442144    2.5013987898
H        0.4942970204   -2.5671567057    2.2560910030
H        4.3382873557   -1.9410553834    2.8250070664
H        4.6230071537    0.8966595919    6.0401904765
H        0.9402795056   -1.3733734770    4.5052071239
H        2.6796396772   -0.8025412794    5.8869772336
26   

C        1.5728313149   -0.9307092434   -0.2463393376
C        6.8838790230    0.3878012118    3.8644226865
C        2.6635596927   -1.5469929898    0.3735516573
C        0.5696849864   -0.3483931367    0.5331938758
C        5.8028874196    1.0080923781    3.2316042434
C        6.6520387218   -0.6118402916    4.8131290181
C        2.7467281601   -1.5836656224    1.7704501601
C        0.6614138844   -0.3801435113    1.9295562521
C        4.4933091432    0.6310421711    3.5516465989
C        5.3410312295   -0.9913748958    5.1237315218
C        1.7490723865   -0.9973971806    2.5639639447
C        4.2476890361   -0.3753097701    4.4980020711
C        1.8227902458   -1.0366415978    4.0384166303
C        2.8700834146   -0.7758785342    4.8486826206
H        1.5050642952   -0.9048685744   -1.3280235168
H        7.8985644158    0.6813800223    3.6204400305
H        3.4464208472   -1.9971057117   -0.2259944559
H       -0.2800678575    0.1272244835    0.0569384982
H        5.9767432688    1.7814960050    2.4923135123
H        7.4871332933   -1.0929828558    5.3093451233
H        3.5959855193   -2.0626064117    2.2446311613
H       -0.1205893203    0.0737021456    2.5269615526
H        3.6595237804    1.1157112916    3.0562974223
H        5.1696333366   -1.7674028574    5.8604819657
H        0.9145576183   -1.3604727438    4.5335066559
H        2.6656305379   -0.8274325458    5.9118888890
26   

C        1.5457716991   -0.9758573448   -0.2497047128
C        6.8859791075    0.4252691599    3.9017863923
C        2.6288982735   -1.5909783382    0.3841681195
C        0.5563232280   -0.3532203583    0.5158392018
C        5.7948196894    1.0376764137    3.2791635250
C        6.6715021183   -0.6040714660    4.8222196712
C        2.7180497999   -1.5865768299    1.7811350723
C        0.6539232464   -0.3438225441    1.9121517609
C        4.4923135402    0.6233877075    3.5813796231
C        5.3677366939   -1.0209305875    5.1150212597
C        1.7339073855   -0.9599924314    2.5614257367
C        4.2634130491   -0.4129854050    4.4998263612
C        1.8115432713   -0.9581208593    4.0346693904
C        2.8948944021   -0.8509440591    4.8343568308
H        1.4732276266   -0.9823247408   -1.3313706196
H        7.8950593095    0.7481131365    3.6719250463
H        3.4011343323   -2.0725819551   -0.2046043395
H       -0.2877057715    0.1215452901    0.0286824326
H        5.9552335502    1.8343434573    2.5618541659
H        7.5146022302   -1.0791491734    5.3106796215
H        3.5614013824   -2.0667262976    2.2644009143
H       -0.1185627077    0.1411033850    2.4973604841
H        3.6518188445    1.1045112845    3.0941230185
H        5.2113912708   -1.8196285915    5.8305584337
H        0.8649678905   -1.0930374504    4.5452369814
H        2.7310805642   -1.0910822656    5.8785720708
26   

C        1.4641813010   -1.0142697752   -0.2837708044
C        6.9374415030    0.4534228407    3.9785083410
C        2.5749909098   -1.5904559665    0.3383259011
C        0.4839483719   -0.3872369445    0.4896776809
C        5.8558822485    1.0394791786    3.3154393234
C        6.7135082099   -0.5803462307    4.8914297495
C        2.7012280683   -1.5430060635    1.7316468172
C        0.6179752539   -0.3348317054    1.8819840900
C        4.5531870296    0.5946426842    3.5696760294
C        5.4101016441   -1.0277476355    5.1367680319
C        1.7261975095   -0.9118627249    2.5206768110
C        4.3141467351   -0.4465830274    4.4808867565
C        1.8400553175   -0.8673681310    3.9892302367
C        2.9466124208   -0.9145482240    4.7680329607
H        1.3628845033   -1.0546223747   -1.3623976212
H        7.9463646907    0.8003554798    3.7860588144
H        3.3397820154   -2.0760717783   -0.2568604189
H       -0.3815792194    0.0573052599    0.0117894384
H        6.0238579085    1.8401589048    2.6043338323
H        7.5490440047   -1.0350115894    5.4113260263
H        3.5658350440   -1.9958572818    2.2034671413
H       -0.1492103927    0.1530260683    2.4716778545
H        3.7216744443    1.0586647780    3.0515012268
H        5.2484558782   -1.8293403942    5.8478503631
H        0.8998579189   -0.8077964513    4.5251671568
H        2.8003200787   -1.3411039650    5.7536277576
26   

C        1.3353405359   -1.0518155322   -0.3281296330
C        7.0146685615    0.4737159531    4.0951118505
C        2.5027542579   -1.5521135704    0.2544158454
C        0.3594134210   -0.4573233349    0.4755401156
C        5.9659892081    1.0139538624    3.3461609232
C        6.7546086041   -0.5381976561    5.0225485370
C        2.6905236285   -1.4610542702    1.6386498421
C        0.5537341925   -0.3618411373    1.8583677548
C        4.6596648072    0.5449745587    3.5284497509
C        5.4482470047   -1.0094000182    5.1971238881
C        1.7200029053   -0.8619255243    2.4585782658
C        4.3839256918   -0.4750470931    4.4540162597
C        1.8966032722   -0.7745877339    3.9171624202
C        3.0129778578   -0.9659107416    4.6681191572
H        1.1866511609   -1.1262387144   -1.3994391490
H        8.0259900055    0.8395933582    3.9583133352
H        3.2636284085   -2.0136145018   -0.3645394414
H       -0.5498492144   -0.0717662851    0.0285959375
H        6.1622404676    1.7986981799    2.6245794795
H        7.5643112883   -0.9572553110    5.6090160484
H        3.5986979127   -1.8582498614    2.0775297197
H       -0.2125249336    0.0995681451    2.4701165896
H        3.8551305300    0.9770539130    2.9443324850
H        5.2604217440   -1.7930226627    5.9216554967
H        1.0051594466   -0.5265173162    4.4813071095
H        2.8654530737   -1.5650338560    5.5590501871
26   

C        1.1705972235   -1.1054256916   -0.3562461878
C        7.0866222349    0.4958546335    4.2538874461
C        2.4041527969   -1.5069928886    0.1628707855
C        0.2036481886   -0.5642598418    0.4944814035
C        6.0941625088    0.9789248377    3.3971102541
C        6.7689516111   -0.4793178847    5.2024204020
C        2.6678129598   -1.3694966550    1.5308387667
C        0.4724483497   -0.4237992238    1.8608966689
C        4.7863078008    0.4887000136    3.4916792751
C        5.4613646633   -0.9706817044    5.2909685529
C        1.7067090900   -0.8232035636    2.3977480255
C        4.4529880106   -0.4949113128    4.4377719916
C        1.9637533199   -0.6898890550    3.8390264198
C        3.0798227715   -1.0052612112    4.5598578193
H        0.9636585747   -1.2155393749   -1.4147495755
H        8.0988177615    0.8779841825    4.1845193793
H        3.1574449071   -1.9286011609   -0.4927670060
H       -0.7564065785   -0.2552721493    0.0969554402
H        6.3351574498    1.7364494036    2.6601296359
H        7.5346717317   -0.8540003066    5.8721145559
H        3.6266907422   -1.6926387513    1.9197265585
H       -0.2886498706   -0.0057939319    2.5092007804
H        4.0257522676    0.8788787731    2.8250305273
H        5.2289767130   -1.7243345369    6.0341400519
H        1.1532287467   -0.2702576056    4.4231062205
H        2.9235216839   -1.7514349116    5.3299129333
26   

C        0.9809277555   -1.1725710705   -0.3759346787
C        7.1560023675    0.5224900731    4.4418827217
C        2.2774816293   -1.4660032586    0.0548568344
C        0.0390164888   -0.6919725607    0.5371777373
C        6.2457262836    0.9463785158    3.4700520740
C        6.7594514620   -0.4102855234    5.4034566577
C        2.6295998032   -1.2796630463    1.3969407201
C        0.3952489463   -0.5048364142    1.8777863012
C        4.9412561280    0.4382620972    3.4618461677
C        5.4550615335   -0.9177805714    5.3908537097
C        1.6939252956   -0.7944049628    2.3251050306
C        4.5298448684   -0.5020856776    4.4204565529
C        2.0476176613   -0.6125260341    3.7387183635
C        3.1587492670   -1.0277267593    4.4319140340
H        0.7059694729   -1.3198159264   -1.4142574709
H        8.1654359404    0.9178964247    4.4514884388
H        3.0109723589   -1.8419016220   -0.6492634896
H       -0.9690133981   -0.4663926845    0.2082196446
H        6.5478453509    1.6721392373    2.7236687220
H        7.4611635125   -0.7393191869    6.1614543151
H        3.6363703820   -1.5200484133    1.7189043641
H       -0.3465990113   -0.1358767150    2.5762832851
H        4.2430961508    0.7828722048    2.7076232461
H        5.1594534796   -1.6372253684    6.1454301976
H        1.3350793198   -0.0493301069    4.3295907004
H        2.9935739543   -1.8874532189    5.0703640184
26   

C        0.7808891371   -1.2475594688   -0.3984114137
C        7.2293395548    0.5545269643    4.6409302281
C        2.1272591172   -1.4426593632   -0.0780679098
C       -0.1112047861   -0.8160323949    0.5867783583
C        6.4239238536    0.9324908813    3.5630406780
C        6.7388229896   -0.3441563336    5.5919332917
C        2.5789635709   -1.2060651628    1.2257948045
C        0.3441001624   -0.5813306006    1.8894328143
C        5.1304492512    0.4115669342    3.4379843881
C        5.4447751911   -0.8621654900    5.4638471541
C        1.6934085966   -0.7720619192    2.2244121727
C        4.6259597156   -0.4921036902    4.3859685320
C        2.1578759491   -0.5400479043    3.5956709670
C        3.2656144878   -1.0267294776    4.2692673555
H        0.4291234004   -1.4326485541   -1.4070804057
H        8.2303324034    0.9589092732    4.7404266264
H        2.8221149670   -1.7808628469   -0.8382607368
H       -1.1567673743   -0.6653668705    0.3432024874
H        6.7989971543    1.6322012726    2.8249182974
H        7.3593728755   -0.6384925698    6.4306913105
H        3.6235957797   -1.3683552682    1.4653952447
H       -0.3580176588   -0.2515938519    2.6462446668
H        4.5112918673    0.7176829017    2.6025561498
H        5.0734639994   -1.5545939682    6.2102588271
H        1.5455427278    0.1363451707    4.1800456785
H        3.0960898570   -1.9672396412    4.7798116685
26   

C        0.5719528011   -1.3506191594   -0.4057441325
C        7.2868508224    0.6066136102    4.8608833456
C        1.9481344414   -1.4925093746   -0.2056152497
C       -0.2412874479   -0.9173414561    0.6450339432
C        6.5921076631    0.9787323166    3.7063599289
C        6.7095092220   -0.2965037818    5.7576991641
C        2.5082547129   -1.2004373549    1.0439070129
C        0.3222669396   -0.6296484557    1.8936290796
C        5.3224191952    0.4469067440    3.4506273356
C        5.4385042309   -0.8232345817    5.4999320003
C        1.7020788707   -0.7673012048    2.1067256792
C        4.7316146768   -0.4582310334    4.3443728015
C        2.2851939880   -0.4799935910    3.4189424652
C        3.3957663806   -0.9998907843    4.0864675477
H        0.1363199697   -1.5775615284   -1.3722560438
H        8.2695673745    1.0184084628    5.0611726865
H        2.5819894492   -1.8315929958   -1.0169949761
H       -1.3090752397   -0.8062480065    0.4942750922
H        7.0348609308    1.6815716708    3.0098887112
H        7.2446623094   -0.5875526712    6.6544392206
H        3.5755386671   -1.3175047969    1.1935357673
H       -0.3177576563   -0.2991155325    2.7033553633
H        4.7871518784    0.7437175234    2.5558742666
H        4.9975320987   -1.5190059368    6.2041960516
H        1.7641116410    0.2862178759    3.9804693901
H        3.2349701906   -1.9964984307    4.4799612219
