29   

C        1.1740021952   -1.0442179312    0.1871868535
C        1.5355465477   -2.1919588667    0.8950633664
C        1.0130850300    0.1665436524    0.8648352216
C        1.7276780067   -2.1283121824    2.2793981600
C        1.2006100190    0.2263945298    2.2511203788
C        1.9439728774   -0.1025672604    6.4276720136
C        2.8886751543   -1.1586022502    6.1895657505
C        1.5455864760   -0.9253501462    2.9873008952
C        1.2015942392    0.0118984549    5.2870464126
C       -0.0428085619    0.8342774760    5.2069153462
C       -2.2461854047    1.4735032957    4.3025422876
C       -1.4022647888   -0.8403586035    3.9373594170
N        2.7147903336   -1.6367804362    4.9850894468
N        1.7321341875   -0.8968843487    4.3879068174
N       -1.1462732524    0.5199451653    4.4024134939
O       -0.1681579353    1.7764317741    5.9949470229
H        1.0276153530   -1.0918547101   -0.8862958522
H        1.6703627545   -3.1332640131    0.3735896973
H        0.7485309027    1.0632353072    0.3153676788
H        2.0120234135   -3.0253359424    2.8191317121
H        1.0903898150    1.1820931217    2.7496651097
H        1.7960171192    0.4384887787    7.3553284977
H        3.6116169298   -1.5264494343    6.9085137652
H       -2.8518264617    1.2659499415    3.4146565499
H       -1.8611666644    2.4942449120    4.2065837926
H       -2.8819460701    1.4144971272    5.1915879077
H       -2.4550348016   -1.0966347628    4.0931903819
H       -0.8161590368   -1.5737985280    4.4991981204
H       -1.1802920032   -0.9349647077    2.8702427161
29   

C        1.1643033152   -1.0084059866    0.1712724014
C        1.5423465631   -2.1535862422    0.8743446759
C        0.9916548652    0.1979827843    0.8532568164
C        1.7381630815   -2.0920354988    2.2583239794
C        1.1834362925    0.2559328418    2.2388778641
C        1.8447936192   -0.1646078237    6.4551418146
C        2.7928670627   -1.2187344813    6.2185779447
C        1.5438307378   -0.8937992202    2.9716000528
C        1.1649125257    0.0005662406    5.2839304068
C       -0.0354678080    0.8745839356    5.1241344206
C       -2.2555105858    1.4524641394    4.2071174120
C       -1.4206658313   -0.8913771148    4.0162129289
N        2.6776465844   -1.6424626410    4.9862627533
N        1.7287160745   -0.8712500517    4.3734629259
N       -1.1690436828    0.4968367014    4.3930746016
O       -0.0809562703    1.9386467130    5.7490483772
H        1.0143931093   -1.0542538697   -0.9017886352
H        1.6864056650   -3.0915582494    0.3493999764
H        0.7150948582    1.0934895649    0.3077415758
H        2.0336214046   -2.9883539141    2.7931540111
H        1.0667736789    1.2113170181    2.7362934645
H        1.6644763798    0.3521658542    7.3905992685
H        3.4785156969   -1.6216152145    6.9550689142
H       -2.8644122884    1.1731181187    3.3414133449
H       -1.8587605415    2.4555046535    4.0180299921
H       -2.8914332898    1.4819920989    5.0973762938
H       -2.4750050925   -1.1379055893    4.1768845094
H       -0.8388668255   -1.5858404858    4.6300248192
H       -1.1841894437   -1.0545320295    2.9603641246
29   

C        1.1456812531   -0.9768685524    0.1834074086
C        1.5223582794   -2.1171147948    0.8948816975
C        0.9909551247    0.2379654676    0.8539475160
C        1.7330174667   -2.0424495854    2.2761491827
C        1.1987496068    0.3095232830    2.2364184707
C        1.7980336852   -0.1554199069    6.4871444643
C        2.7336461698   -1.2228502993    6.2575246324
C        1.5558536040   -0.8353354465    2.9794936257
C        1.1735022961    0.0527941478    5.2934849039
C        0.0269390464    0.9823926843    5.0549213552
C       -2.2068253802    1.5304606207    4.1361911233
C       -1.4298297911   -0.8447148870    4.1682014162
N        2.6610801389   -1.6085917092    5.0089727811
N        1.7509629454   -0.8029417044    4.3808963546
N       -1.1508139724    0.5657522340    4.4230418197
O        0.0913661450    2.1411820182    5.4759504359
H        0.9833879907   -1.0327515117   -0.8873540248
H        1.6532723219   -3.0616952369    0.3784846140
H        0.7165561438    1.1302599836    0.3020643575
H        2.0258234754   -2.9363252010    2.8163818204
H        1.0996953057    1.2743320752    2.7190974321
H        1.5996368910    0.3489135452    7.4254183770
H        3.3826957021   -1.6591898433    7.0079831694
H       -2.7871457605    1.2081180839    3.2658155057
H       -1.7859727112    2.5131334574    3.8991029080
H       -2.8757546313    1.6273466440    4.9968139926
H       -2.4921305575   -1.0530387919    4.3303202303
H       -0.8724980011   -1.4933856295    4.8512990362
H       -1.1772801988   -1.1062519144    3.1359676324
29   

C        1.1773876092   -0.9952039851    0.1562119138
C        1.5430133820   -2.1496946467    0.8499082195
C        1.0553414084    0.2145268354    0.8420039191
C        1.7733486924   -2.0944676843    2.2290129455
C        1.2841236784    0.2671173266    2.2218972834
C        1.8091416923   -0.3584344874    6.4933035208
C        2.7343017775   -1.4298858466    6.2394723126
C        1.6279049881   -0.8925895825    2.9491362574
C        1.2447127771   -0.0707515946    5.2871170736
C        0.1549721515    0.9173344362    5.0037230148
C       -2.0949207378    1.4851020174    4.1165892161
C       -1.3950366621   -0.9081470576    4.3111500093
N        2.7089193371   -1.7401969507    4.9678336943
N        1.8384089579   -0.8837426295    4.3497872294
N       -1.0723999257    0.5065874681    4.4720678652
O        0.3357994361    2.1149169581    5.2399922055
H        0.9988697405   -1.0359381934   -0.9126264807
H        1.6495465473   -3.0905827722    0.3213743449
H        0.7906947894    1.1182663946    0.3041436897
H        2.0559624761   -3.0004605681    2.7541518068
H        1.2142532545    1.2310810183    2.7112541380
H        1.5884272634    0.1021688079    7.4486586431
H        3.3449493676   -1.9208184264    6.9884290645
H       -2.6194193535    1.1663160006    3.2102521711
H       -1.6560948680    2.4656307351    3.9059546401
H       -2.8178937648    1.5895395929    4.9312907336
H       -2.4674050565   -1.0701049689    4.4591055498
H       -0.8748675835   -1.5236836767    5.0519878067
H       -1.1250105971   -1.2498386021    3.3069728070
29   

C        1.2175932602   -1.0019658394    0.1141614880
C        1.5974688228   -2.1468167434    0.8156278685
C        1.0789848107    0.2100255401    0.7923537148
C        1.8246486560   -2.0798187610    2.1947214377
C        1.3053445256    0.2745055580    2.1721650918
C        1.7046507662   -0.4448361412    6.4750256674
C        2.6658793989   -1.4843044530    6.2235023386
C        1.6625951091   -0.8756157404    2.9084680471
C        1.2135677790   -0.1039027503    5.2510641705
C        0.1515225683    0.9037023445    4.9194406818
C       -2.1441276616    1.4453933925    4.1254601396
C       -1.4521509183   -0.9385861143    4.4700274068
N        2.7244414185   -1.7267965262    4.9382442318
N        1.8712832429   -0.8589279695    4.3103314219
N       -1.1150407986    0.4813745441    4.5046302627
O        0.4045305853    2.1100874189    4.9669861610
H        1.0412192578   -1.0515773261   -0.9546259521
H        1.7174038122   -3.0895044079    0.2932684377
H        0.8040601526    1.1072500981    0.2487997206
H        2.1178997882   -2.9796915590    2.7243799040
H        1.2260774794    1.2427300918    2.6507561168
H        1.4245692645   -0.0325054767    7.4366658943
H        3.2429248039   -2.0009754958    6.9817261413
H       -2.2385386013    1.4803028061    3.0356336301
H       -1.9126654971    2.4524905344    4.4859625061
H       -3.1080098287    1.1614722167    4.5590625628
H       -2.5326025433   -1.0794168653    4.5728993494
H       -0.9780173498   -1.4790294741    5.2955713933
H       -1.1320692060   -1.3805938496    3.5209622669
29   

C        1.3473131263   -1.0829930350    0.0207770062
C        1.7223907372   -2.2036721402    0.7621368853
C        1.1814708412    0.1451137970    0.6622632547
C        1.9183121073   -2.0958897769    2.1434972979
C        1.3765006408    0.2499073687    2.0444379968
C        1.6088432091   -0.4669092120    6.3885242884
C        2.6128121148   -1.4718726445    6.1707959240
C        1.7299275753   -0.8739532980    2.8211962084
C        1.1899171973   -0.1014393362    5.1446022832
C        0.1405804474    0.9081074520    4.7721946150
C       -2.2072056668    1.4633625404    4.1819066825
C       -1.5482030329   -0.9060451779    4.6859971927
N        2.7577550869   -1.6750803213    4.8860171173
N        1.9169162870   -0.8176668693    4.2259872598
N       -1.1766087033    0.4990948695    4.5540578641
O        0.4462165882    2.0917545157    4.6070035900
H        1.1961539770   -1.1633677864   -1.0499652871
H        1.8635516046   -3.1590583408    0.2690729409
H        0.9110930619    1.0247644020    0.0885604594
H        2.2092711867   -2.9784477181    2.7025281557
H        1.2815449491    1.2314198696    2.4888761605
H        1.2629694851   -0.0857751105    7.3414677645
H        3.1585003101   -1.9923006074    6.9493863147
H       -2.3397077224    1.4693992639    3.0955577018
H       -1.9469290403    2.4747219199    4.5101582005
H       -3.1591692989    1.2061807209    4.6566326052
H       -2.6218584218   -1.0049716960    4.8734240909
H       -1.0304516734   -1.3762471891    5.5278332475
H       -1.3028772897   -1.4477590389    3.7666813902
29   

C        1.5952689373   -1.1302776651   -0.1232240654
C        1.8734357271   -2.2558413669    0.6523512798
C        1.4364959340    0.1105670235    0.4946673473
C        1.9792749117   -2.1389955235    2.0429060890
C        1.5428393567    0.2236896673    1.8858851988
C        1.4463643768   -0.5502105043    6.2532742950
C        2.4826615598   -1.5291055536    6.0810525421
C        1.7959886977   -0.9023055191    2.6956974859
C        1.1108955451   -0.1518180714    4.9932783361
C        0.0592284850    0.8472490384    4.6035484399
C       -2.3206682062    1.4864133827    4.3357543942
C       -1.7130317498   -0.8459829319    5.0237391886
N        2.7187415558   -1.6939664900    4.8052219635
N        1.9070760131   -0.8366558515    4.1082084460
N       -1.2935749699    0.5079531774    4.6761186507
O        0.3782588206    1.9764862922    4.2209970149
H        1.5149055469   -1.2165853891   -1.2010914881
H        2.0104065351   -3.2215835715    0.1788015102
H        1.2429618892    0.9942789557   -0.1033184784
H        2.1983735356   -3.0251072896    2.6282826066
H        1.4676287530    1.2137835786    2.3106153599
H        1.0259758214   -0.2053392128    7.1898625413
H        2.9847318319   -2.0596812302    6.8818191327
H       -2.5421031902    1.4444073090    3.2648801155
H       -1.9996713709    2.5009086524    4.5938273642
H       -3.2376802524    1.2843073901    4.8982011058
H       -1.8835295477   -0.9263362473    6.1016740622
H       -0.9672185061   -1.5885147973    4.7229423453
H       -2.6393080878   -1.0998631857    4.4986799002
29   

C        1.7716591888   -1.1411559122   -0.2349366651
C        1.9395059341   -2.2790303141    0.5546249555
C        1.6588771723    0.1098666981    0.3733048246
C        1.9788750860   -2.1632928734    1.9486874154
C        1.7020985447    0.2214504912    1.7682315435
C        1.3210156612   -0.6524588347    6.1303895221
C        2.4105691496   -1.5747087443    5.9818284925
C        1.8382897974   -0.9151701271    2.5890862027
C        1.0225179113   -0.2308855503    4.8669839108
C       -0.0455616581    0.7431753639    4.4728855156
C       -2.4132697870    1.4749518178    4.4786991301
C       -1.8028054893   -0.8089670209    5.3083106056
N        2.7145015171   -1.6879023421    4.7156163501
N        1.8956230142   -0.8500845275    4.0033158437
N       -1.3844797542    0.4850710576    4.7795526149
O        0.2399787320    1.8000665705    3.9018810902
H        1.7424550461   -1.2263550897   -1.3154470201
H        2.0434646357   -3.2529188406    0.0895033815
H        1.5517133932    1.0017867340   -0.2339932240
H        2.1156862024   -3.0566681364    2.5478067446
H        1.6748362028    1.2145580421    2.1929379348
H        0.8467322003   -0.3530924984    7.0567744381
H        2.9004931422   -2.1042141885    6.7907800235
H       -2.7673941440    1.3520974752    3.4505738768
H       -2.0276564633    2.4920647058    4.6043226767
H       -3.2594937889    1.3629306031    5.1638803170
H       -1.8030229841   -0.7918264310    6.4024577918
H       -1.1459646710   -1.6128937584    4.9607881581
H       -2.8112249550   -1.0516004755    4.9582882113
29   

C        1.8744157203   -1.2124932770   -0.2511677708
C        3.0035387620   -1.5385625783    0.5014255884
C        0.6771744597   -0.9041784860    0.3967655720
C        2.9336039358   -1.5522407371    1.8991376563
C        0.6116138008   -0.9125343603    1.7951874633
C        1.1114036678   -1.0172366471    6.1063068064
C        2.1131746532   -2.0400142780    5.9709167968
C        1.7435730611   -1.2251186101    2.5779632202
C        0.9058705891   -0.5408580848    4.8435311090
C        0.1120838850    0.6510356256    4.4087066115
C       -1.9401550995    2.0378350455    4.4764369827
C       -1.9302044647   -0.2391045569    5.5218085493
N        2.4638486247   -2.1470519252    4.7154359967
N        1.7121578722   -1.2573757605    3.9944477526
N       -1.2140957619    0.8188214846    4.8174970426
O        0.6328949512    1.5145926555    3.7006846186
H        1.9266043523   -1.2007844389   -1.3340335590
H        3.9368250998   -1.7792628684    0.0050212171
H       -0.2049361741   -0.6590750020   -0.1838412889
H        3.8190853701   -1.8057870620    2.4713714070
H       -0.3395543543   -0.6898637885    2.2598153307
H        0.6797707293   -0.6555896680    7.0310615610
H        2.5337391862   -2.6178370732    6.7858142858
H       -2.4226125087    1.9311739914    3.5000866848
H       -1.2670999699    2.9011938794    4.4489579400
H       -2.7039790606    2.2481650828    5.2317654431
H       -1.8031561576   -0.1309908683    6.6033885525
H       -1.5783859780   -1.2289974743    5.2136678998
H       -2.9984353004   -0.1942344184    5.2866966123
29   

C        1.9637733645   -1.2943072276   -0.2717007153
C        3.0947933429   -1.5114110892    0.5169726757
C        0.7261494196   -1.0794764203    0.3378527069
C        2.9858953555   -1.5104684585    1.9122133394
C        0.6219638125   -1.0718325403    1.7340787085
C        0.9818802499   -1.1020853674    6.0510763582
C        2.0263425755   -2.0843753812    5.9471165102
C        1.7534439383   -1.2747087607    2.5511186147
C        0.8075588372   -0.6158368565    4.7854583254
C        0.0318693726    0.5782836466    4.3326258500
C       -1.8993993458    2.1187566848    4.5008419421
C       -1.9505403028   -0.0752846314    5.7017471780
N        2.4380741199   -2.1565231501    4.7087349452
N        1.6818332730   -1.2894420980    3.9657088271
N       -1.2252845641    0.8777451739    4.8691470898
O        0.4936794417    1.3300982378    3.4714707121
H        2.0461585287   -1.2936881241   -1.3527059410
H        4.0591943593   -1.6782836093    0.0507150586
H       -0.1563853205   -0.9177333694   -0.2704751541
H        3.8714827945   -1.6792595422    2.5146593205
H       -0.3532206675   -0.9172187099    2.1772253101
H        0.5151147339   -0.7632024541    6.9669096929
H        2.4340468930   -2.6563763217    6.7725908283
H       -2.4590861771    1.9848386317    3.5701147340
H       -1.1770153945    2.9312728312    4.3694169534
H       -2.5900895156    2.4255918052    5.2926805608
H       -1.7255060975    0.0921780850    6.7594938000
H       -1.6985091597   -1.1064719271    5.4341405941
H       -3.0291923404    0.0358683624    5.5512998695
29   

C        2.1900617477   -1.5691452325   -0.1652555694
C        3.2996033412   -1.6401453650    0.6790182763
C        0.9101665861   -1.4543428314    0.3816846019
C        3.1266893875   -1.5932528430    2.0669304395
C        0.7418039239   -1.4001544137    1.7707429597
C        0.8874255488   -1.2568152428    6.0899823153
C        1.9758599002   -2.1939491373    6.0519292225
C        1.8490069630   -1.4543213956    2.6412845874
C        0.7604808170   -0.7808675991    4.8125864785
C        0.0067297344    0.4053014798    4.3073603893
C       -1.7939216859    2.0941406398    4.4714010447
C       -1.9119040669    0.0278590625    5.8688940657
N        2.4642337997   -2.2478788612    4.8420919583
N        1.7132889139   -1.4207112316    4.0503966737
N       -1.1747508183    0.8488679589    4.9156088458
O        0.3959766508    1.0184575997    3.3103786921
H        2.3219626320   -1.6036567875   -1.2407497697
H        4.2962257994   -1.7288872997    0.2617211347
H        0.0450133637   -1.4049128367   -0.2694560766
H        3.9944202494   -1.6492995805    2.7146126729
H       -0.2603121391   -1.3195489173    2.1724707678
H        0.3743951141   -0.9318876906    6.9850519606
H        2.3599134275   -2.7445328975    6.9029182580
H       -2.3955193291    1.9199976515    3.5739886491
H       -1.0313898147    2.8484310623    4.2500287537
H       -2.4356287047    2.5033192034    5.2581697497
H       -1.6009803767    0.2567983255    6.8927915700
H       -1.7646712617   -1.0381122120    5.6679331129
H       -2.9862699843    0.2189374469    5.7807247416
29   

C        2.7412490967   -0.9873195145   -0.0934116866
C        2.7249433565    0.0354823336    0.8579230735
C        2.2617528727   -2.2544995208    0.2440145489
C        2.2193703076   -0.2068137568    2.1411988451
C        1.7641875904   -2.4941825836    1.5298204290
C        0.5242658487   -1.5755676242    5.8759509193
C        1.2607157635   -2.7934714775    5.6860847142
C        1.7138123845   -1.4727913538    2.4965333307
C        0.5018802141   -0.9512793892    4.6548423656
C       -0.3477061885    0.1682939285    4.1472933270
C       -1.9756652239    2.0094271457    4.4246769900
C       -0.7330896073    1.1690083788    6.4147635918
N        1.6265254563   -2.8922361070    4.4381136730
N        1.2167671990   -1.7581934030    3.7907118083
N       -1.0426607808    1.0419793146    4.9966336406
O       -0.4298266536    0.3979882272    2.9376911475
H        3.1251520316   -0.7988304522   -1.0895533972
H        3.1009229959    1.0195157281    0.6027752442
H        2.2718269792   -3.0533266343   -0.4887931826
H        2.2175444248    0.5958269733    2.8682552660
H        1.3957709784   -3.4812397900    1.7856307310
H        0.0097016389   -1.3134485221    6.7891984740
H        1.4489939082   -3.5387007752    6.4502954307
H       -2.6869739632    2.3510118772    5.1833406084
H       -2.5573911095    1.5531472513    3.6166850760
H       -1.4320516339    2.8734381726    4.0300269644
H        0.3311104820    0.9914759867    6.5998702590
H       -1.3382737014    0.4729900492    7.0036711192
H       -0.9444036068    2.1864216194    6.7594626777
29   

C        2.7486920074   -0.9428164907   -0.0468277378
C        2.5584483201    0.0887507424    0.8751656545
C        2.4198179594   -2.2535257278    0.3035906633
C        2.0303641861   -0.1893889823    2.1418511034
C        1.8992301570   -2.5286110024    1.5731377063
C        0.3599258028   -1.6754700669    5.8415674563
C        1.1480041195   -2.8662613572    5.6823572216
C        1.6767517534   -1.5028771881    2.5112724917
C        0.3790611164   -1.0498206716    4.6238956977
C       -0.4803542886    0.0571704468    4.1083579227
C       -1.9501647687    2.0223016568    4.4215057628
C       -0.5059288023    1.2512599955    6.3074723893
N        1.5813894372   -2.9426267606    4.4529693690
N        1.1583423117   -1.8218538512    3.7898414179
N       -1.0015879865    1.0472294429    4.9513940294
O       -0.7360489795    0.1454218243    2.9048340872
H        3.1506374116   -0.7273399825   -1.0303363546
H        2.8178827702    1.1072480817    0.6100545794
H        2.5643745891   -3.0594103763   -0.4069871548
H        1.8998260387    0.6250078973    2.8431502651
H        1.6470918113   -3.5497879500    1.8362231868
H       -0.2125696652   -1.4191717475    6.7227471479
H        1.3256654738   -3.6087023122    6.4517990413
H       -2.5449176301    2.4560096851    5.2316838348
H       -2.6485596676    1.5443505363    3.7263542858
H       -1.4187850139    2.8240910276    3.8996059292
H        0.5446644015    0.9555221263    6.3920367315
H       -1.1076701762    0.6848232172    7.0247710272
H       -0.5561885190    2.3122563083    6.5726199245
29   

C        2.7482101236   -0.8189344406    0.0326789609
C        2.4319727540    0.2003168462    0.9329695151
C        2.5423241671   -2.1509127263    0.3957148394
C        1.9013071237   -0.1119332473    2.1904414109
C        2.0185959720   -2.4599368234    1.6561848207
C        0.2508042490   -1.7220428925    5.8570618821
C        1.0965686388   -2.8763195905    5.7193171503
C        1.6714674614   -1.4496329812    2.5735186367
C        0.3014002958   -1.0834634010    4.6494969952
C       -0.5526318550    0.0291167103    4.1342942633
C       -1.8536433741    2.1111457173    4.4568755678
C       -0.2875555887    1.3335688619    6.2460546221
N        1.5957916930   -2.9119854412    4.5118953112
N        1.1515583578   -1.8024286367    3.8430418466
N       -0.9150779438    1.1075490138    4.9488968774
O       -0.9594893640    0.0132212175    2.9705622574
H        3.1529481699   -0.5773663927   -0.9436366410
H        2.5969845840    1.2359268241    0.6584207488
H        2.7849598924   -2.9476018606   -0.2983496952
H        1.6799275551    0.6990089272    2.8720754058
H        1.8620922355   -3.4981764850    1.9268520240
H       -0.3660510940   -1.4829355398    6.7136737636
H        1.2705632102   -3.6217430726    6.4867058301
H       -2.3746659165    2.5868485865    5.2938051037
H       -2.6171595408    1.6526250874    3.8196247316
H       -1.3235285310    2.8776517336    3.8833953309
H        0.7393923958    0.9545512814    6.2602642872
H       -0.8654046556    0.8503920638    7.0398685450
H       -0.2316405690    2.4063653908    6.4569116255
29   

C        2.7656575811   -0.7663873294    0.1276113593
C        2.3328026434    0.2269584209    1.0074950784
C        2.6845857538   -2.1074576317    0.5052568652
C        1.8107837042   -0.1206307015    2.2591504714
C        2.1681908698   -2.4518254691    1.7596173335
C        0.2158421574   -1.8644565508    5.9007111237
C        1.1285434423   -2.9688883427    5.7776384575
C        1.7055995746   -1.4703630925    2.6577576930
C        0.2767980633   -1.2081992148    4.7051343263
C       -0.5889520402   -0.0975406828    4.1991355012
C       -1.7258246456    2.0838973823    4.5061368599
C       -0.0320890714    1.3062798720    6.1794625046
N        1.6788096748   -2.9529813356    4.5912007011
N        1.1959826240   -1.8599714072    3.9214251208
N       -0.7933548081    1.0571822403    4.9602345476
O       -1.1541739580   -0.2030682764    3.1093466093
H        3.1649114615   -0.4975024522   -0.8438591970
H        2.4022218495    1.2705266948    0.7221135582
H        3.0189758273   -2.8843938047   -0.1729253926
H        1.5064590421    0.6784556913    2.9217640349
H        2.1094823426   -3.4978115247    2.0394042790
H       -0.4358033089   -1.6566625848    6.7400230690
H        1.3152199334   -3.7162812004    6.5401150474
H       -2.1717207836    2.5962835880    5.3645118843
H       -2.5474848215    1.6443536178    3.9310494109
H       -1.2071795414    2.8173734305    3.8813379892
H        0.9676875795    0.8641036333    6.1201819352
H       -0.5575103522    0.8965139146    7.0476023342
H        0.1047819743    2.3823899799    6.3266219102
29   

C        2.6887647485   -0.6342199865    0.1088249976
C        1.3169797626   -0.4497246175    0.2874696482
C        3.4358857095   -1.2606611156    1.1066869764
C        0.6958849852   -0.8800580335    1.4661126983
C        2.8115993795   -1.6863445724    2.2845752110
C       -0.0678732705   -1.9956738995    5.7214854956
C        0.7435150980   -3.1589754870    5.5019441816
C        1.4331272407   -1.4860233310    2.5022177361
C        0.0332006179   -1.2568449377    4.5782598119
C       -0.6284140867    0.0574184245    4.2958157052
C       -1.0954486847    2.4159832349    4.8973430121
C        0.6591764551    1.1278122834    6.1375203237
N        1.2871617259   -3.0920343436    4.3151624183
N        0.8466647000   -1.9444739466    3.7077947572
N       -0.3821530642    1.1620794353    5.1159305290
O       -1.4220966647    0.1793742016    3.3577346148
H        3.1683612887   -0.3045446459   -0.8060074409
H        0.7249201023    0.0151484963   -0.4930269178
H        4.4992708333   -1.4217754465    0.9693564275
H       -0.3771770133   -0.7742897736    1.5350165740
H        3.4054150286   -2.1766349008    3.0479741987
H       -0.6434819108   -1.7648742018    6.6092700656
H        0.8924181403   -3.9644165011    6.2118011130
H       -1.1725772240    2.9766807104    5.8342452267
H       -2.1159497887    2.2310569770    4.5461211713
H       -0.5688635192    3.0268540855    4.1576964848
H        1.4712190995    0.4493681027    5.8568207196
H        0.2410221196    0.8109100995    7.0978113680
H        1.1043165994    2.1208284992    6.2561054185
29   

C        2.6603905190   -0.4989126279    0.2651032484
C        1.2988598560   -0.2760702070    0.4730667194
C        3.3921673621   -1.2220463148    1.2071038119
C        0.6731114124   -0.7639509974    1.6263198996
C        2.7632640620   -1.7084830257    2.3587853047
C       -0.2076050912   -2.1278402881    5.7549173091
C        0.6696567230   -3.2459925176    5.5500623001
C        1.3949367701   -1.4739648987    2.6074570997
C       -0.0835061521   -1.3596964462    4.6353602116
C       -0.7724555528   -0.0572251584    4.3434924891
C       -1.0541840998    2.3736619709    4.7377722395
C        0.7986675776    1.1205263405    5.8692271422
N        1.2701254188   -3.1228506183    4.3946754701
N        0.8049128516   -1.9821670550    3.7929969639
N       -0.3645678095    1.1127069391    4.9879169264
O       -1.7060948214   -0.0077137179    3.5378058060
H        3.1437908135   -0.1224999416   -0.6295162033
H        0.7180642288    0.2652688067   -0.2655955328
H        4.4479416114   -1.4101449092    1.0470206575
H       -0.3927674053   -0.6138138552    1.7139595833
H        3.3486721359   -2.2703528420    3.0781354554
H       -0.8338700015   -1.9416531159    6.6186221289
H        0.8217797480   -4.0610298781    6.2481916073
H       -0.9899561395    3.0217040415    5.6175542510
H       -2.1172793621    2.2079155150    4.5347813513
H       -0.6039887865    2.8870565923    3.8825973656
H        1.5328649801    0.3645382609    5.5733335359
H        0.4931610546    0.9372704403    6.9039092401
H        1.3054265601    2.0892768754    5.8158571874
29   

C        2.5651155620   -0.2870845830    0.4780794557
C        1.2081672606   -0.0650248729    0.7159557813
C        3.2971373389   -1.0887296337    1.3542685848
C        0.5872267567   -0.6317035476    1.8352005449
C        2.6736724802   -1.6552941526    2.4716205152
C       -0.3613152412   -2.2754928368    5.8147837553
C        0.5586292678   -3.3564199179    5.5898706907
C        1.3112208223   -1.4241331171    2.7513428654
C       -0.2064912526   -1.4432217280    4.7471847257
C       -0.9112521340   -0.1459593094    4.4653310482
C       -1.0003247778    2.3324714255    4.5850551067
C        0.9524618757    1.0816278130    5.5477472938
N        1.2042492455   -3.1560952921    4.4691604459
N        0.7277699842   -1.9998659459    3.9088703224
N       -0.3343185429    1.0630300908    4.8593250953
O       -1.9747776908   -0.1378004425    3.8403775780
H        3.0453933230    0.1521469320   -0.3892186428
H        0.6283581874    0.5393796410    0.0270842247
H        4.3494554005   -1.2746097919    1.1702131347
H       -0.4757278495   -0.4691649474    1.9516959506
H        3.2597369127   -2.2751198348    3.1412634389
H       -1.0322522805   -2.1540713386    6.6562677018
H        0.7062137803   -4.2023028607    6.2513264827
H       -0.8319312631    3.0370829441    5.4053598108
H       -2.0831351914    2.2030192749    4.4892630155
H       -0.6137477961    2.7655544557    3.6572908683
H        1.0365652579    0.2507817293    6.2551651314
H        1.0690507074    2.0055750051    6.1225131246
H        1.7686643519    1.0170927528    4.8208222094
29   

C        2.5203504703   -0.1958824147    0.6068731753
C        1.1582330669   -0.0133167910    0.8504963520
C        3.2750084461   -0.9950984977    1.4663951710
C        0.5544359207   -0.6166945777    1.9598315962
C        2.6691079669   -1.5984608717    2.5740292010
C       -0.4574112758   -2.4071575743    5.8274592080
C        0.5142618730   -3.4454087857    5.6139986896
C        1.3026179706   -1.4061600783    2.8595987954
C       -0.2625598471   -1.5171608891    4.8148237542
C       -0.9730050314   -0.2187900299    4.5643216072
C       -0.9740842689    2.2685377103    4.4970888907
C        1.0306083000    1.0244500104    5.3436465621
N        1.2231517705   -3.1710739308    4.5480182214
N        0.7359187914   -2.0097754997    4.0101018349
N       -0.3182621634    0.9963687831    4.7860336588
O       -2.1226996172   -0.2166835826    4.1173351724
H        2.9878043488    0.2724848451   -0.2521929410
H        0.5624710322    0.5899501778    0.1743411253
H        4.3314657818   -1.1499535693    1.2771377657
H       -0.5124028022   -0.4816461648    2.0877914114
H        3.2710208310   -2.2153375061    3.2324101544
H       -1.1801373109   -2.3438333170    6.6317421622
H        0.6517617628   -4.3146638420    6.2467099602
H       -0.7817931084    2.9859850593    5.3008192964
H       -2.0600059520    2.1580839053    4.4170486802
H       -0.5958571045    2.6772898628    3.5549063192
H        1.1713814154    0.2277112713    6.0810814508
H        1.2145061873    1.9732621460    5.8571780227
H        1.7721710187    0.9106321242    4.5463471365
29   

C        2.4925950819   -0.1856361932    0.6540933052
C        1.1297354385   -0.0172111282    0.9049102947
C        3.2614129815   -0.9739596963    1.5115245744
C        0.5392976689   -0.6240242239    2.0195395611
C        2.6687168893   -1.5814214306    2.6240488605
C       -0.5455602874   -2.4996764809    5.7903161222
C        0.4550773655   -3.5136051711    5.5928409612
C        1.3022052115   -1.4029768115    2.9157435529
C       -0.3044776188   -1.5586529115    4.8350289968
C       -1.0105165632   -0.2511427580    4.6457890308
C       -0.9965701216    2.2267989625    4.4693805119
C        1.0720992175    1.0120079884    5.1766051472
N        1.2237969486   -3.1820226967    4.5863019959
N        0.7459152466   -2.0083626394    4.0691247716
N       -0.3211045428    0.9625697982    4.7429704068
O       -2.2195759183   -0.2362045782    4.3993686219
H        2.9500469695    0.2855733363   -0.2088335879
H        0.5240173650    0.5782710677    0.2306841385
H        4.3185190424   -1.1172183792    1.3166586475
H       -0.5275772951   -0.4986200515    2.1596035272
H        3.2797416989   -2.1904300041    3.2814869770
H       -1.3112690940   -2.4772523841    6.5563198249
H        0.5699592601   -4.4063146881    6.1967568743
H       -1.3364656100    2.6839025406    5.4036503168
H       -1.8594145489    2.0863999559    3.8104740575
H       -0.3129013792    2.9144648298    3.9615554135
H        1.3124425780    0.1795862388    5.8456448935
H        1.2612471928    1.9341495044    5.7351498668
H        1.7426717303    0.9829936390    4.3120083758
29   

C        0.8292410127   -1.7961545503    0.3694640038
C        0.0704641627   -2.2706168207    1.4411666170
C        1.8931863073   -0.9244443753    0.6069090460
C        0.3662347523   -1.8628433643    2.7472234378
C        2.1892964349   -0.5210799615    1.9136063053
C        1.6513445318   -0.1118539836    6.4789837778
C        2.9995742083   -0.0122408251    5.9891901372
C        1.4213900729   -0.9634186664    3.0080677843
C        0.8812775643   -0.3899416200    5.3891353612
C       -0.6118978269   -0.4657965447    5.3659277588
C       -2.8274935102    0.0736985980    4.3994019185
C       -0.7965880615    1.2867692073    3.5933711156
N        3.0136219620   -0.2228394543    4.6974961871
N        1.7330983056   -0.5135367663    4.3132439591
N       -1.3797340689    0.2484982860    4.4384479455
O       -1.1962928435   -1.1337085402    6.2242191178
H        0.5993881585   -2.1109190564   -0.6425069736
H       -0.7452687345   -2.9626407984    1.2630151060
H        2.4922218467   -0.5596203127   -0.2201923659
H       -0.2235714478   -2.2744684319    3.5573809689
H        3.0192712216    0.1562899225    2.0836412259
H        1.3123688948    0.0452173262    7.4960819554
H        3.8688871925    0.2252138672    6.5914827609
H       -3.3108542945    0.7554158562    5.1059001650
H       -3.1047331916   -0.9554817962    4.6502114208
H       -3.2055229000    0.2745795275    3.3919414700
H       -0.5729104754    0.8913701321    2.5977120398
H        0.1188325619    1.6947866137    4.0332595946
H       -1.4960609777    2.1220590199    3.4875978444
29   

C        0.8409645873   -1.7951247997    0.3553182163
C        0.0550510218   -2.2393892047    1.4208164548
C        1.9134156865   -0.9348904754    0.5971755179
C        0.3329002305   -1.8128880811    2.7250483435
C        2.1920929092   -0.5139877096    1.9020421121
C        1.6010215551   -0.1480446002    6.4687514885
C        2.9577332177   -0.0813996735    5.9988220648
C        1.3976981980   -0.9267353869    2.9887311464
C        0.8285750224   -0.3507885334    5.3626327906
C       -0.6643652449   -0.3104450103    5.3607007548
C       -2.8703135409    0.2180081007    4.3821230072
C       -0.8181929698    1.2605507868    3.4182215410
N        2.9791571935   -0.2378470687    4.7001841749
N        1.6935603540   -0.4650112989    4.2922380453
N       -1.4148124311    0.3130039287    4.3555924477
O       -1.2704062996   -0.7547579636    6.3405667141
H        0.6252913289   -2.1239139762   -0.6553342248
H       -0.7680636203   -2.9215546624    1.2387943847
H        2.5328202956   -0.5930315985   -0.2247652445
H       -0.2786542817   -2.1943403741    3.5339309828
H        3.0293549637    0.1530882571    2.0773436120
H        1.2558240910   -0.0054893172    7.4861840533
H        3.8276202734    0.0995211585    6.6196363455
H       -3.2852820792    0.9453329185    5.0868438675
H       -3.1857114250   -0.7876639706    4.6794601850
H       -3.2827092668    0.4090211150    3.3862912238
H       -0.6574136389    0.7908294886    2.4430956345
H        0.1321869187    1.6522717585    3.7935354243
H       -1.4809760457    2.1211371690    3.2828241334
29   

C        0.8730689364   -1.7708312145    0.3555842102
C        0.0930792667   -2.2270506007    1.4207331841
C        1.9337283107   -0.8960244577    0.5980702988
C        0.3654414359   -1.7982509374    2.7255387911
C        2.2071973167   -0.4733868854    1.9034073215
C        1.6356928394   -0.2600339853    6.4845425639
C        2.9906842559   -0.1888816116    6.0120143415
C        1.4187850903   -0.8990907304    2.9890535286
C        0.8486586548   -0.3790486702    5.3747629033
C       -0.6385502552   -0.2458099821    5.4150934510
C       -2.8667028449    0.2368535968    4.4751476799
C       -0.8456151962    1.1811494292    3.3692948994
N        3.0023603432   -0.2613335346    4.7065278193
N        1.7112774910   -0.4421551600    4.2940416128
N       -1.4118766774    0.2861206057    4.3745568686
O       -1.2151247553   -0.4913273187    6.4788148774
H        0.6620428717   -2.1013108262   -0.6555112361
H       -0.7210448197   -2.9195914721    1.2375792687
H        2.5484191506   -0.5448096985   -0.2234970495
H       -0.2411779073   -2.1835488756    3.5364673499
H        3.0360310463    0.2035946820    2.0810312878
H        1.3000686935   -0.1571003029    7.5101826998
H        3.8664643398   -0.0603877926    6.6375866893
H       -3.2280389966    1.0241086369    5.1442928452
H       -3.1916026760   -0.7354792068    4.8603265463
H       -3.3222417396    0.3684104817    3.4885395453
H       -0.7378521228    0.6687718611    2.4086612168
H        0.1250620000    1.5758514717    3.6841051730
H       -1.5022046606    2.0452235793    3.2259374968
29   

C        0.9090915967   -1.7439963780    0.3590872178
C        0.1303317463   -2.2121406325    1.4202508002
C        1.9545929381   -0.8522818250    0.6067367821
C        0.3890634925   -1.7786333700    2.7264096265
C        2.2145439323   -0.4252041729    1.9133682722
C        1.6305248699   -0.3550421811    6.4977448480
C        2.9881915769   -0.2923350029    6.0331693691
C        1.4270212717   -0.8634450027    2.9942151476
C        0.8396798440   -0.3864030081    5.3829921666
C       -0.6360253400   -0.1487654662    5.4518281987
C       -2.8836832063    0.2723934768    4.5412133131
C       -0.8973081474    1.1187311417    3.3137067669
N        3.0023096231   -0.2844884374    4.7263433236
N        1.7089684218   -0.4093213094    4.3016038114
N       -1.4330122315    0.2793022106    4.3814870185
O       -1.1724074236   -0.1844767379    6.5623258979
H        0.7090758921   -2.0782227295   -0.6530227595
H       -0.6720484391   -2.9170863149    1.2327361839
H        2.5684959559   -0.4921388229   -0.2115695893
H       -0.2159213960   -2.1690191894    3.5363173275
H        3.0326698948    0.2631389080    2.0970420781
H        1.2979973253   -0.2851336004    7.5273328501
H        3.8646214526   -0.2218767908    6.6670026659
H       -3.2036598605    1.1269071081    5.1460064134
H       -3.2097920082   -0.6515515568    5.0304850277
H       -3.3757603354    0.3200685706    3.5646058860
H       -0.8306191118    0.5614663280    2.3748006524
H        0.0865041174    1.5202293347    3.5738714345
H       -1.5521450271    1.9810379645    3.1525835624
