45

C      1.05826   -5.43449   -2.50573
C      0.75508   -3.77304   -4.20823
C      3.47542   -4.69868   -5.22115
C      2.69818   -6.89869   -4.60570
C      0.01445   -4.87220   -1.77630
C     -0.29131   -3.21499   -3.47128
C      4.51247   -5.26210   -5.96764
C      3.72843   -7.48101   -5.34662
C      1.45282   -4.89627   -3.74117
C      2.55283   -5.50207   -4.52836
C     -0.68577   -3.74492   -2.23446
C      4.61960   -6.64824   -6.01577
C     -3.03721   -5.72194   -3.59752
C     -1.05046   -0.63685   -0.11702
C     -1.38408   -0.68804   -1.61361
C     -0.56782   -2.00343    0.38546
C     -2.37105   -1.82352   -1.92821
C     -1.58991   -3.10043    0.06539
C     -1.89346   -3.21565   -1.44982
C     -3.05235   -4.23916   -1.60961
N     -3.38844   -4.54924   -2.99131
O     -2.51230   -6.67888   -3.04320
F      5.62626   -7.20599   -6.73982
H      1.57934   -6.29967   -2.10478
H      1.00806   -3.34762   -5.17612
H      3.39904   -3.61703   -5.15534
H      1.97903   -7.54000   -4.10445
H     -0.26493   -5.34371   -0.83963
H     -0.80668   -2.35857   -3.89185
H      5.23401   -4.64621   -6.49584
H      3.83845   -8.55880   -5.41858
H     -3.30025   -5.72735   -4.67260
H     -1.94725   -0.34205    0.44583
H     -0.29222    0.13106    0.07465
H     -1.81247    0.26695   -1.94035
H     -0.45808   -0.82847   -2.18128
H      0.39163   -2.25208   -0.08430
H     -0.39172   -1.96925    1.46685
H     -3.31872   -1.60823   -1.41592
H     -2.60437   -1.83138   -2.99922
H     -1.25116   -4.06130    0.46348
H     -2.53149   -2.87250    0.58417
H     -3.94413   -3.85581   -1.09896
H     -2.78063   -5.18707   -1.14232
H     -3.76203   -3.81698   -3.58053
