31

C      0.06362   -3.23300    0.50593
C      3.49845   -2.55920   -0.82164
C     -0.44119   -1.95622    0.61228
C      4.00542   -3.83088   -0.92718
C      1.62599   -1.02946   -0.22317
C      1.92392   -4.77482   -0.08692
C      2.17680   -2.33315   -0.34245
C      1.38450   -3.46333    0.02918
C      0.34187   -0.82316    0.24733
C      3.21236   -4.95482   -0.55694
C     -1.45373    0.78613   -0.54516
C     -0.57621    0.95507    1.82356
C      3.09863   -7.33275   -0.35860
C     -0.23803    0.57390    0.37586
O     -2.41164    1.46738   -0.25951
O     -1.37420    0.19124   -1.76708
O      3.83217   -6.16218   -0.70948
H     -0.55223   -4.08493    0.78503
H      4.11150   -1.70728   -1.10623
H     -1.45695   -1.80776    0.97097
H      5.01207   -4.01410   -1.29113
H      2.24155   -0.17711   -0.50684
H      1.30300   -5.61639    0.20038
H     -1.34079    0.29208    2.23718
H      0.31949    0.87874    2.44638
H     -0.96211    1.97545    1.86916
H      3.76573   -8.17325   -0.55299
H      2.19526   -7.43380   -0.97245
H      2.82156   -7.32412    0.70266
H      0.51478    1.28114    0.00194
H     -0.58696   -0.38479   -1.79058
