29   
Generated by ForceBalance from scan.xyz: Frame 1 of 24
C        1.7141455456    4.7219357331   -3.2895922755
C        1.8691230259    5.2591738822   -2.0065084191
C        1.0975337624    3.4768606867   -3.4513369401
C        1.4218091310    4.5473492974   -0.8928424842
C        0.6618142202    2.7602681273   -2.3342475793
C        0.8485549361    3.2749993255   -1.0405837177
C        0.2759675730    2.6257793909    0.1917838203
C       -0.6758495712   -1.5525763297    0.1029593706
C        0.2145980907   -0.9185544855   -0.9746698381
C       -1.5965986384   -0.4992309000    0.7337098796
C        0.9522031946    0.2971153327   -0.4106267943
C       -0.8078648973    0.7133516467    1.2382321686
N       -0.0019222566    1.2700659541    0.1449486554
O       -0.0529978280    3.3236188276    1.1542721997
H        2.0546099892    5.2783045991   -4.1592243950
H        2.3248361769    6.2374278202   -1.8769622911
H        0.9414772954    3.0710154299   -4.4475959404
H        1.5050362692    4.9630904658    0.1063891520
H        0.1386919153    1.8198300667   -2.4748387532
H       -0.0368381171   -1.9887105561    0.8830511063
H       -1.2645407906   -2.3745282838   -0.3191679057
H       -0.3998134169   -0.6018173490   -1.8270268845
H        0.9452219477   -1.6446059780   -1.3493016636
H       -2.1601930512   -0.9319075369    1.5680719129
H       -2.3279414193   -0.1567762164   -0.0087793481
H        1.5748819393    0.7732247856   -1.1655272441
H        1.6262768266   -0.0319806585    0.3973931095
H       -1.4704688401    1.4973287533    1.6036716288
H       -0.1547923583    0.4242599391    2.0765364806
29   
Generated by ForceBalance from scan.xyz: Frame 2 of 24
C        1.8027485295    4.6656695492   -3.2928660925
C        2.0138443046    5.1625185125   -2.0014103014
C        1.0502991005    3.5004010780   -3.4751128627
C        1.4788441244    4.4951837114   -0.8980696840
C        0.5324669992    2.8224515102   -2.3687751244
C        0.7577989427    3.3052174171   -1.0702888146
C        0.1226482582    2.6820841782    0.1431417382
C       -0.5984913499   -1.5310234955    0.0991133281
C        0.2595353412   -0.8562993357   -0.9801941443
C       -1.5546268165   -0.5180765229    0.7435833593
C        0.9585098203    0.3829541975   -0.4161883705
C       -0.8068538305    0.7182671983    1.2531736664
N       -0.0206725747    1.3103150615    0.1654569471
O       -0.3272812369    3.4045436172    1.0368448812
H        2.2104436726    5.1908625026   -4.1528765941
H        2.5839373813    6.0766113479   -1.8569784985
H        0.8595654637    3.1253849217   -4.4774193930
H        1.6047109906    4.8878317013    0.1063770391
H       -0.0735811728    1.9330701134   -2.5161418911
H        0.0611324480   -1.9492981570    0.8718219862
H       -1.1588273183   -2.3710133526   -0.3261327800
H       -0.3736391054   -0.5563338556   -1.8248297892
H        1.0127885212   -1.5520437660   -1.3672873103
H       -2.0970018242   -0.9777072876    1.5776185887
H       -2.3025184915   -0.1969925360    0.0079868843
H        1.5446830621    0.8906028484   -1.1795841062
H        1.6595487723    0.0741977963    0.3763364158
H       -1.4919506640    1.4783061896    1.6268672770
H       -0.1385686382    0.4432625581    2.0840871590
29   
Generated by ForceBalance from scan.xyz: Frame 3 of 24
C        1.8539714978    4.5941734079   -3.2741281466
C        2.0994449286    5.0421408417   -1.9709909373
C        0.9965744956    3.5091496226   -3.4864649106
C        1.4897237337    4.4093908162   -0.8852766184
C        0.4046959532    2.8621025364   -2.3985971641
C        0.6528598945    3.3047590175   -1.0913114293
C       -0.0369390100    2.6934606582    0.0982890449
C       -0.5438501363   -1.5256156611    0.0861494653
C        0.2940453811   -0.8118669148   -0.9840064572
C       -1.5275081992   -0.5501180579    0.7471558438
C        0.9638389290    0.4370431885   -0.4032753828
C       -0.8097909904    0.6954834032    1.2783828385
N       -0.0318494650    1.3230502510    0.2065025505
O       -0.6181899108    3.4203460807    0.9093656127
H        2.3207958259    5.0932969432   -4.1194231672
H        2.7574371732    5.8907954747   -1.8027828783
H        0.7872748742    3.1691787636   -4.4975282566
H        1.6468518370    4.7694035609    0.1273255002
H       -0.2665220651    2.0233727715   -2.5646880441
H        0.1281900908   -1.9362133402    0.8524060005
H       -1.0803700704   -2.3751815952   -0.3506149263
H       -0.3484886614   -0.5144851573   -1.8224139004
H        1.0633811497   -1.4822653702   -1.3840776679
H       -2.0582877588   -1.0385796027    1.5722527975
H       -2.2830277067   -0.2347641848    0.0168346709
H        1.5234375104    0.9764811157   -1.1648179882
H        1.6826232602    0.1346035837    0.3750329946
H       -1.5110634259    1.4358481492    1.6612861980
H       -0.1349085431    0.4201679086    2.1034301659
29   
Generated by ForceBalance from scan.xyz: Frame 4 of 24
C        1.8902657321    4.5383812078   -3.2990180133
C        2.1892601723    4.9290752011   -1.9888644884
C        0.9336779832    3.5429162588   -3.5261865820
C        1.5329467946    4.3300876313   -0.9102712197
C        0.2918120584    2.9299003497   -2.4466684283
C        0.5885659209    3.3207272298   -1.1339230950
C       -0.1414099641    2.7241810341    0.0409898917
C       -0.4882822596   -1.4695202374    0.0841737565
C        0.3417698651   -0.7313133904   -0.9759338938
C       -1.4805484078   -0.5155100832    0.7644495916
C        1.0022689269    0.5159927879   -0.3785990232
C       -0.7709398099    0.7271520431    1.3147938992
N        0.0032020765    1.3776856913    0.2551823682
O       -0.8465389622    3.4421341817    0.7560795038
H        2.3953903621    5.0106159791   -4.1376506690
H        2.9279842791    5.7057143690   -1.8082037305
H        0.6886734402    3.2437992612   -4.5421492126
H        1.7415546864    4.6472195285    0.1077612656
H       -0.4480934732    2.1527815622   -2.6227458625
H        0.1883217168   -1.8879587532    0.8421930961
H       -1.0179470868   -2.3160643273   -0.3666416233
H       -0.3045390192   -0.4262935716   -1.8086506258
H        1.1158309832   -1.3888871989   -1.3881064459
H       -2.0045943277   -1.0236684956    1.5819781658
H       -2.2410106031   -0.1940147300    0.0419691231
H        1.5458813675    1.0767303540   -1.1366693332
H        1.7312261145    0.2103315906    0.3878994307
H       -1.4760238068    1.4577887114    1.7094254667
H       -0.0893925371    0.4414118409    2.1300087316
29   
Generated by ForceBalance from scan.xyz: Frame 5 of 24
C        1.9213098478    4.4778172335   -3.3366534414
C        2.2611652828    4.7955236530   -2.0169666023
C        0.8836452715    3.5736824085   -3.5883932328
C        1.5668771688    4.2125830212   -0.9528467427
C        0.1967684719    2.9818851106   -2.5245015913
C        0.5360635878    3.2990662160   -1.2029874935
C       -0.2392574638    2.7103111832   -0.0512225979
C       -0.4441344302   -1.4312375941    0.0586818081
C        0.4008659394   -0.6743671242   -0.9765884222
C       -1.4510500127   -0.4924711507    0.7395057648
C        1.0486861426    0.5666915217   -0.3504859130
C       -0.7521914922    0.7430992206    1.3202391358
N        0.0382313131    1.4124189910    0.2849942795
O       -1.0778840022    3.3930093261    0.5435558186
H        2.4589173360    4.9348892688   -4.1633577066
H        3.0637064954    5.5007496704   -1.8165016174
H        0.6099487728    3.3290606616   -4.6115971162
H        1.8189664816    4.4688028780    0.0728527025
H       -0.6070903703    2.2760642771   -2.7199863591
H        0.2215682356   -1.8604402527    0.8204134249
H       -0.9637482387   -2.2719056497   -0.4142937581
H       -0.2323797344   -0.3570312451   -1.8147567886
H        1.1827508654   -1.3237765782   -1.3870634116
H       -1.9861202664   -1.0162615098    1.5398928407
H       -2.2014168232   -0.1602113742    0.0113968321
H        1.5958383857    1.1437302265   -1.0941274236
H        1.7698830711    0.2545078157    0.4194157205
H       -1.4659175421    1.4660867465    1.7136774462
H       -0.0790080100    0.4455526086    2.1371641466
29   
Generated by ForceBalance from scan.xyz: Frame 6 of 24
C        1.8963663597    4.4633248006   -3.3049055361
C        2.2906235610    4.6584843363   -1.9767084249
C        0.7817659300    3.6659093023   -3.5868273980
C        1.5784828776    4.0548856240   -0.9359369287
C        0.0683047331    3.0627303438   -2.5469063369
C        0.4674564300    3.2511289130   -1.2180446058
C       -0.3382812286    2.6448241007   -0.0958331504
C       -0.3888401063   -1.4408020503    0.0895932963
C        0.4617468748   -0.6644673549   -0.9264653060
C       -1.4207808396   -0.5217894457    0.7599454645
C        1.0833484003    0.5816814498   -0.2824085937
C       -0.7463868915    0.7177367724    1.3613579826
N        0.0518520592    1.4085301857    0.3454717757
O       -1.2930116245    3.2603925109    0.3855710783
H        2.4507238609    4.9324606480   -4.1135943990
H        3.1516545275    5.2823671386   -1.7507989535
H        0.4663437137    3.5156945261   -4.6161932619
H        1.8830659033    4.2085784107    0.0962925871
H       -0.8017275924    2.4484878923   -2.7659491863
H        0.2706107883   -1.8650239733    0.8596394162
H       -0.8874469479   -2.2862330270   -0.3972893008
H       -0.1623562503   -0.3482705187   -1.7719988531
H        1.2585605983   -1.2998799080   -1.3302582556
H       -1.9628636411   -1.0591108237    1.5465587458
H       -2.1626376161   -0.1922567299    0.0220903774
H        1.6287722878    1.1722099135   -1.0169826405
H        1.7998460995    0.2775363288    0.4939845863
H       -1.4772403530    1.4262030358    1.7497008424
H       -0.0786312518    0.4220293310    2.1826029298
29   
Generated by ForceBalance from scan.xyz: Frame 7 of 24
C        1.9513214705    4.5003134633   -3.3334666528
C        2.3953662898    4.5232782528   -2.0068612267
C        0.7534381538    3.8519129328   -3.6539321905
C        1.6517733947    3.8891113771   -1.0073823749
C        0.0024334522    3.2293756213   -2.6528610028
C        0.4557238615    3.2344389562   -1.3281257146
C       -0.4009551480    2.6217430880   -0.2491176929
C       -0.3569093915   -1.4199884817    0.1572810725
C        0.5111643864   -0.6735915147   -0.8659705269
C       -1.4205692429   -0.4891345257    0.7577436543
C        1.0986314818    0.6091551025   -0.2611810870
C       -0.7793550419    0.7843012487    1.3228652772
N        0.0389815591    1.4471841895    0.3035105214
O       -1.4420840504    3.1814390644    0.1050002264
H        2.5315474666    4.9898340130   -4.1113631294
H        3.3191651258    5.0355970971   -1.7503634726
H        0.4001225409    3.8381403288   -4.6818369226
H        1.9981318118    3.9029215157    0.0232693997
H       -0.9399187104    2.7448492377   -2.8948629108
H        0.2851791740   -1.8024765378    0.9630644626
H       -0.8294466774   -2.2919034073   -0.3084903469
H       -0.0940913960   -0.4024783364   -1.7403803633
H        1.3277937090   -1.3127105981   -1.2215839798
H       -1.9769162168   -0.9999221857    1.5520728919
H       -2.1458066018   -0.2022957838   -0.0134920238
H        1.6513051472    1.1734880930   -1.0106418194
H        1.8012826351    0.3518631331    0.5438616670
H       -1.5320288683    1.4954002630    1.6612256178
H       -0.1291122558    0.5328489804    2.1722483541
29   
Generated by ForceBalance from scan.xyz: Frame 8 of 24
C        1.9449498513    4.5391625906   -3.3320185388
C        2.4259279073    4.4066202677   -2.0247877008
C        0.6945808812    4.0096967922   -3.6709931481
C        1.6678471408    3.7296541807   -1.0656286703
C       -0.0725341062    3.3517611749   -2.7061793850
C        0.4186642098    3.1916231022   -1.4044098548
C       -0.4615813800    2.5462008064   -0.3670669440
C       -0.3460446944   -1.4198300355    0.2163192707
C        0.5465146483   -0.6972191037   -0.8025213367
C       -1.4241899513   -0.4751759106    0.7669399727
C        1.1182985620    0.6028651777   -0.2180510342
C       -0.7917392919    0.8092487798    1.3162916341
N        0.0449420713    1.4570684856    0.3002046945
O       -1.5785867868    3.0146810933   -0.1293995566
H        2.5372444592    5.0596105937   -4.0802229680
H        3.3888243933    4.8311768316   -1.7523234807
H        0.3132369005    4.1194226857   -4.6829642654
H        2.0411329359    3.6235006818   -0.0499398146
H       -1.0583565612    2.9672349830   -2.9525085533
H        0.2761589816   -1.7812823004    1.0471502063
H       -0.8054648150   -2.3039094544   -0.2395651379
H       -0.0365934151   -0.4501198771   -1.6988313855
H        1.3730966366   -1.3432249072   -1.1211889903
H       -2.0009530872   -0.9664603713    1.5590583987
H       -2.1292051181   -0.2039964053   -0.0279609877
H        1.6871618103    1.1441250032   -0.9719048036
H        1.8024435383    0.3701564592    0.6094343916
H       -1.5512634733    1.5233719295    1.6317319377
H       -0.1516750825    0.5739611913    2.1775024203
29   
Generated by ForceBalance from scan.xyz: Frame 9 of 24
C        1.8949243312    4.6121164611   -3.2796574642
C        2.4143239871    4.3252844134   -2.0125302946
C        0.6074615139    4.1795992177   -3.6179517794
C        1.6581560684    3.5898808287   -1.0962458673
C       -0.1569817012    3.4641375042   -2.6937756455
C        0.3702120281    3.1489363833   -1.4342014986
C       -0.5136245038    2.4340216378   -0.4489236937
C       -0.2952984987   -1.4568061726    0.3082121956
C        0.6054447515   -0.7481253914   -0.7126438089
C       -1.3972663093   -0.5133790927    0.8112782265
C        1.1467978180    0.5783750725   -0.1580674030
C       -0.7919002887    0.7956532331    1.3315487807
N        0.0519997049    1.4359654201    0.3146187933
O       -1.6883179562    2.7882342374   -0.3097193287
H        2.4859062308    5.1777228154   -3.9955294751
H        3.4054767785    4.6766976350   -1.7373221859
H        0.1965490645    4.4096956222   -4.5975847950
H        2.0584292819    3.3757961402   -0.1087375019
H       -1.1696560577    3.1523736155   -2.9320936613
H        0.3156056555   -1.7871647219    1.1601219127
H       -0.7329634702   -2.3591724510   -0.1331033352
H        0.0356374198   -0.5369863507   -1.6265672231
H        1.4485315853   -1.3887318008   -0.9975267602
H       -1.9791717808   -0.9892678683    1.6090929148
H       -2.0929854819   -0.2762961707   -0.0020322037
H        1.7217094905    1.0991448841   -0.9211525382
H        1.8187948959    0.3832062181    0.6885153380
H       -1.5685202369    1.5027226915    1.6199467002
H       -0.1585114407    0.5940551956    2.2058965341
29   
Generated by ForceBalance from scan.xyz: Frame 10 of 24
C        1.9060847482    4.6818604710   -3.2942721952
C        2.4534775234    4.2611269198   -2.0772688245
C        0.5878115103    4.3415669092   -3.6185926392
C        1.6946936394    3.4849490725   -1.1979881731
C       -0.1760577065    3.5813241689   -2.7312829598
C        0.3730958681    3.1380447618   -1.5192833069
C       -0.5151527882    2.3495080386   -0.5965922448
C       -0.2718613764   -1.4614861346    0.3424228589
C        0.6487149039   -0.7843612521   -0.6814980647
C       -1.3844660468   -0.5027331522    0.7886317528
C        1.1797417797    0.5607104616   -0.1615878959
C       -0.7878237419    0.8226029583    1.2755962824
N        0.0777577817    1.4404006854    0.2603439713
O       -1.7243383466    2.5968369968   -0.5534088245
H        2.5000898149    5.2795452652   -3.9810326712
H        3.4694915689    4.5412995872   -1.8112006292
H        0.1552212404    4.6742142179   -4.5586427866
H        2.1150797753    3.1856815135   -0.2423775443
H       -1.2077582517    3.3291552255   -2.9565022944
H        0.3210971263   -1.7626887405    1.2175704633
H       -0.6989160579   -2.3785590092   -0.0785349469
H        0.0970981321   -0.6043387504   -1.6130575407
H        1.4983529913   -1.4320469068   -0.9289157553
H       -1.9825944765   -0.9505129557    1.5908066056
H       -2.0627304802   -0.2931596500   -0.0460906552
H        1.7701991591    1.0491473574   -0.9338530984
H        1.8347466297    0.3958503998    0.7042640900
H       -1.5705782010    1.5353012936    1.5322656486
H       -0.1676876663    0.6486215730    2.1650944367
29   
Generated by ForceBalance from scan.xyz: Frame 11 of 24
C        1.8920089787    4.7722426378   -3.2795074954
C        2.4734857746    4.2219579421   -2.1322803191
C        0.5468027958    4.5150671774   -3.5669730262
C        1.7207565962    3.4034737907   -1.2870287281
C       -0.2074232073    3.7053379578   -2.7167922732
C        0.3695258337    3.1418234348   -1.5677926079
C       -0.5160935644    2.2740913200   -0.7136222254
C       -0.2729113853   -1.4620305995    0.4227259290
C        0.6699432362   -0.8251036159   -0.6056803200
C       -1.3995603286   -0.4886903980    0.7937802429
C        1.1875254231    0.5427600634   -0.1328980939
C       -0.8177896860    0.8582341391    1.2368908954
N        0.0788736466    1.4458954107    0.2283664508
O       -1.7408384612    2.4232868696   -0.7611874536
H        2.4808995496    5.4040862096   -3.9396159083
H        3.5120795593    4.4348831985   -1.8923879964
H        0.0875171285    4.9455029454   -4.4531166800
H        2.1707167307    3.0231739979   -0.3759714530
H       -1.2541459128    3.5021496058   -2.9195209133
H        0.2982603183   -1.7198971599    1.3258514759
H       -0.6843748561   -2.3995538579    0.0324209073
H        0.1404266739   -0.6876256645   -1.5570721063
H        1.5276227872   -1.4788890674   -0.8051255067
H       -2.0175377431   -0.9008544251    1.6000883755
H       -2.0552411069   -0.3190270071   -0.0670548858
H        1.7919421689    0.9921015635   -0.9176917206
H        1.8267150352    0.4176164658    0.7511868496
H       -1.6096060631    1.5770930631    1.4448337123
H       -0.2218912558    0.7235985666    2.1495117563
29   
Generated by ForceBalance from scan.xyz: Frame 12 of 24
C        1.8570000942    4.6379780820   -3.5056805763
C        2.0919474589    3.2820042795   -3.2559361209
C        0.8515783042    5.3086639757   -2.8004249091
C        1.3349775302    2.6027751988   -2.2986016715
C        0.0972944250    4.6293429558   -1.8433747072
C        0.3195241318    3.2657482849   -1.5883655174
C       -0.5218261705    2.6362666259   -0.5067391755
C        0.1277395759   -1.4239786033    0.7411639568
C        1.2466626832   -0.6147817781    0.0702036953
C       -1.2513084286   -0.8936373557    0.3251801344
C        1.0379863424    0.8797308752    0.3160464547
C       -1.3711998969    0.6178007964    0.5451491441
N       -0.2880606062    1.3022504040   -0.1759871354
O       -1.5050620402    3.2386967196   -0.0718343013
H        2.4489390527    5.1659149239   -4.2490769245
H        2.8605956996    2.7507601819   -3.8114066613
H        0.6610832098    6.3614861763   -2.9921952884
H        1.4931902187    1.5388543097   -2.1649226659
H       -0.6799503754    5.1354221471   -1.2802575327
H        0.2335996197   -1.3422991914    1.8315508028
H        0.2203424447   -2.4872474723    0.4935748763
H        1.2485504693   -0.8034145134   -1.0107680811
H        2.2266858875   -0.9150433326    0.4586134802
H       -2.0427275420   -1.4007855744    0.8887078814
H       -1.4222575609   -1.1061460757   -0.7372605303
H        1.8211846698    1.4786274000   -0.1440960295
H        1.0869818671    1.0779336972    1.3998092746
H       -2.3225326906    0.9974140984    0.1722454413
H       -1.3272317653    0.8573131964    1.6190075116
29   
Generated by ForceBalance from scan.xyz: Frame 13 of 24
C        1.9034246971    4.6071803827   -3.4507415472
C        2.0151540970    3.2201659941   -3.3067577879
C        0.9719499054    5.3123357550   -2.6801972759
C        1.2120727534    2.5446799675   -2.3850198052
C        0.1638034700    4.6356279116   -1.7656988474
C        0.2739641300    3.2451463553   -1.6088681681
C       -0.6309372608    2.5946446853   -0.5969014588
C        0.1896648951   -1.3890162387    0.7736040997
C        1.2713136053   -0.5545228532    0.0737942460
C       -1.2106701275   -0.9241955600    0.3516471390
C        1.0138195432    0.9378009705    0.2873860908
C       -1.3896329257    0.5851658475    0.5430148621
N       -0.3338071959    1.3029228027   -0.1837076268
O       -1.6792233350    3.1536262515   -0.2654989702
H        2.5323534614    5.1332905480   -4.1644736404
H        2.7229261437    2.6640899377   -3.9162086263
H        0.8766800480    6.3891915663   -2.7930059429
H        1.2749512738    1.4636514581   -2.3167532734
H       -0.5691080297    5.1653444393   -1.1654228322
H        0.2973715549   -1.2730184654    1.8607786667
H        0.3234180067   -2.4541840065    0.5547450387
H        1.2699039466   -0.7682073198   -1.0026129978
H        2.2656801892   -0.8099184321    0.4576896483
H       -1.9798770838   -1.4511958116    0.9275242103
H       -1.3756878153   -1.1644847284   -0.7058922407
H        1.7640500695    1.5490483172   -0.2100808189
H        1.0810256890    1.1657332316    1.3641187625
H       -2.3533926899    0.9229229898    0.1628137662
H       -1.3556595560    0.8442237282    1.6128004453
29   
Generated by ForceBalance from scan.xyz: Frame 14 of 24
C        1.9655325876    4.5973901320   -3.3946421969
C        1.9758573283    3.1989738629   -3.3507834516
C        1.0910339765    5.3125652379   -2.5683007143
C        1.1307516261    2.5196872818   -2.4700307991
C        0.2341139004    4.6327156231   -1.7009647097
C        0.2538436721    3.2319678160   -1.6370129072
C       -0.7185122337    2.5597071338   -0.7068303022
C        0.2231261856   -1.3414116504    0.7867569634
C        1.2801372349   -0.4859194896    0.0747395042
C       -1.1901535330   -0.9238285757    0.3584226842
C        0.9858970425    1.0029989689    0.2688143276
C       -1.4125848457    0.5816360411    0.5349230685
N       -0.3741550529    1.3262138034   -0.1870526446
O       -1.8264438902    3.0667283554   -0.5109326598
H        2.6280961595    5.1259565517   -4.0753236145
H        2.6379094136    2.6381170944   -4.0055607501
H        1.0736900575    6.3987257853   -2.6055421383
H        1.1229274531    1.4337349020   -2.4604203204
H       -0.4666359517    5.1716688930   -1.0707344452
H        0.3269696945   -1.2082688228    1.8723886460
H        0.3881619660   -2.4049793774    0.5818671539
H        1.2820700327   -0.7134665574   -0.9988074479
H        2.2820701979   -0.7098930040    0.4585263459
H       -1.9442802255   -1.4676155971    0.9386061292
H       -1.3463188675   -1.1795497361   -0.6969097574
H        1.7119340091    1.6232252640   -0.2527976003
H        1.0625075844    1.2504674129    1.3403162011
H       -2.3824029509    0.8924194178    0.1480224858
H       -1.3873721599    0.8488865660    1.6029511331
29   
Generated by ForceBalance from scan.xyz: Frame 15 of 24
C        1.9843089994    4.5767271407   -3.3210528272
C        1.9299724912    3.1797726331   -3.3768324010
C        1.1468601021    5.2712017367   -2.4404308656
C        1.0575696644    2.4799349764   -2.5394217527
C        0.2590865462    4.5722839748   -1.6196500013
C        0.2217359212    3.1717670371   -1.6503990003
C       -0.7972227827    2.4656673114   -0.7978951973
C        0.2722872475   -1.3376369727    0.7961668311
C        1.2998259055   -0.4489495228    0.0813124964
C       -1.1558645462   -0.9629440378    0.3766848630
C        0.9665784360    1.0320091083    0.2816663383
C       -1.4216908759    0.5346330424    0.5632240841
N       -0.4063923041    1.3168197263   -0.1485420159
O       -1.9546027119    2.8921299921   -0.7478861293
H        2.6681156041    5.1213992211   -3.9670728179
H        2.5631414555    2.6367571095   -4.0738695843
H        1.1789316203    6.3569938869   -2.4019248355
H        1.0077680761    1.3955608459   -2.5922564354
H       -0.4190692895    5.1008739323   -0.9562469166
H        0.3773328349   -1.2050817379    1.8818230940
H        0.4688728781   -2.3949995755    0.5870153053
H        1.3010101877   -0.6722210997   -0.9931179696
H        2.3103649693   -0.6464618059    0.4570108570
H       -1.8897175946   -1.5329301520    0.9577729678
H       -1.3097799365   -1.2175394376   -0.6792877241
H        1.6645137173    1.6712778006   -0.2551640693
H        1.0547906808    1.2821209501    1.3512280531
H       -2.3991353107    0.8236674349    0.1790805878
H       -1.3980344573    0.7933797141    1.6331719024
29   
Generated by ForceBalance from scan.xyz: Frame 16 of 24
C        2.0226319078    4.5508957306   -3.2909129426
C        1.8936142265    3.1658501503   -3.4401475136
C        1.2334022484    5.2257909469   -2.3525114250
C        0.9933970629    2.4570590410   -2.6399486660
C        0.3181420485    4.5197792710   -1.5678051230
C        0.2081405226    3.1291489630   -1.6930707911
C       -0.8442122980    2.4050396348   -0.8950834800
C        0.2950624276   -1.2859829580    0.8036942152
C        1.3031791467   -0.3747552085    0.0890129690
C       -1.1428816330   -0.9349286666    0.3961714038
C        0.9490242220    1.1005615491    0.3037162072
C       -1.4325019302    0.5564655307    0.6013532820
N       -0.4330125161    1.3659064177   -0.0996549513
O       -2.0275941593    2.7429100263   -0.9919426834
H        2.7273084860    5.1022922960   -3.9080723711
H        2.4910246107    2.6388872533   -4.1797923779
H        1.3233038908    6.3032680384   -2.2408599781
H        0.8925540827    1.3807210135   -2.7564490992
H       -0.3213143852    5.0407243830   -0.8607661663
H        0.4040562311   -1.1586816252    1.8897032010
H        0.5095910691   -2.3382913436    0.5868856569
H        1.2997053219   -0.5881678528   -0.9873798547
H        2.3196219525   -0.5601749081    0.4549292335
H       -1.8623471050   -1.5250451977    0.9752137156
H       -1.2988717147   -1.1802247543   -0.6617346426
H        1.6254732449    1.7535679780   -0.2445501069
H        1.0513643762    1.3473492439    1.3720773782
H       -2.4145368750    0.8365551809    0.2220623969
H       -1.4042391529    0.8017829020    1.6737784318
29   
Generated by ForceBalance from scan.xyz: Frame 17 of 24
C        2.0322757564    4.5212794137   -3.2441374371
C        1.8284710508    3.1610140864   -3.5000470003
C        1.2976820613    5.1557116875   -2.2361059737
C        0.9046654996    2.4360098669   -2.7418843754
C        0.3636307067    4.4343377652   -1.4872144769
C        0.1739387177    3.0681984938   -1.7274923633
C       -0.8892720635    2.3177926723   -0.9654632325
C        0.3245117679   -1.2420299767    0.8100960133
C        1.3078055718   -0.2981882338    0.1025966992
C       -1.1253617150   -0.9140411296    0.4246390362
C        0.9279913678    1.1672296806    0.3471123567
C       -1.4402820969    0.5681597074    0.6614965817
N       -0.4638988048    1.4114957359   -0.0312514368
O       -2.0821863235    2.5334112968   -1.1970310877
H        2.7537692093    5.0845802179   -3.8302707418
H        2.3870123472    2.6653450820   -4.2899965627
H        1.4466029891    6.2142243454   -2.0387447601
H        0.7479939914    1.3782454495   -2.9399088066
H       -0.2238131049    4.9290541028   -0.7183110141
H        0.4422992231   -1.1327841368    1.8972270767
H        0.5580969093   -2.2856202295    0.5718900666
H        1.2973873520   -0.4905270391   -0.9777310582
H        2.3314546307   -0.4714232466    0.4542745410
H       -1.8259078974   -1.5299709836    1.0000664235
H       -1.2891408852   -1.1416368023   -0.6360193709
H        1.5816878381    1.8418460207   -0.2032980715
H        1.0404971761    1.4006480360    1.4164731589
H       -2.4306591572    0.8368307445    0.2956315892
H       -1.3995996359    0.7943567653    1.7369036968
29   
Generated by ForceBalance from scan.xyz: Frame 18 of 24
C        1.9888202545    4.4836262000   -3.1901748877
C        1.7061067490    3.1660921906   -3.5667542433
C        1.3283411849    5.0497267845   -2.0942654764
C        0.7716494046    2.4161648933   -2.8466074454
C        0.3925397997    4.3006190236   -1.3747652905
C        0.1149901674    2.9794732965   -1.7455068607
C       -0.9363997098    2.1890865916   -1.0064844303
C        0.3643016820   -1.2121810919    0.8809202746
C        1.3174996023   -0.2384390439    0.1724585356
C       -1.0962161698   -0.9296043680    0.4987255413
C        0.8940094041    1.2159980667    0.4149685858
C       -1.4539826534    0.5432939077    0.7343735681
N       -0.5057580655    1.4164723704    0.0385988742
O       -2.1200068100    2.2605578881   -1.3474550158
H        2.7157785659    5.0666949243   -3.7495530509
H        2.2110777696    2.7234016304   -4.4215743440
H        1.5396439529    6.0750221818   -1.8013870153
H        0.5486888726    1.3936041822   -3.1415581161
H       -0.1251052217    4.7411236012   -0.5263712983
H        0.4809688007   -1.1014077825    1.9680508299
H        0.6294332181   -2.2477265895    0.6405419028
H        1.3121859720   -0.4304027156   -0.9080496130
H        2.3464914598   -0.3801382350    0.5228502603
H       -1.7761097857   -1.5658440036    1.0768979814
H       -1.2565995531   -1.1629829082   -0.5610981896
H        1.5253755629    1.9071657245   -0.1413203215
H        1.0009616057    1.4578691622    1.4822292485
H       -2.4532575974    0.7794788164    0.3702337191
H       -1.4127484937    0.7736816453    1.8082600825
29   
Generated by ForceBalance from scan.xyz: Frame 19 of 24
C        1.9955505551    4.4848176208   -3.1809695680
C        1.6340974118    3.2264010592   -3.6745914035
C        1.4165876305    4.9602313542   -1.9992452002
C        0.6971699379    2.4466717833   -2.9903364219
C        0.4878911343    4.1761956200   -1.3085205270
C        0.1238952267    2.9175151631   -1.8028996571
C       -0.9153942193    2.0836017344   -1.0971213059
C        0.3745512372   -1.1777038556    0.9372937279
C        1.3295196727   -0.1958703738    0.2429693600
C       -1.0791110049   -0.9248084210    0.5113462963
C        0.8771721139    1.2557094879    0.4535001804
C       -1.4644574052    0.5445742568    0.7235744149
N       -0.5168262311    1.4292583557    0.0394896749
O       -2.0649725396    2.0194723983   -1.5408040253
H        2.7208551302    5.0925330973   -3.7157560876
H        2.0782372184    2.8542876134   -4.5943229162
H        1.6886372087    5.9400630652   -1.6150683021
H        0.4029092505    1.4755588560   -3.3801306978
H        0.0423587932    4.5417160019   -0.3864912219
H        0.4587794936   -1.0516194395    2.0258307457
H        0.6646836772   -2.2111385138    0.7175466391
H        1.3567368545   -0.4009610801   -0.8348341755
H        2.3511858154   -0.3152737134    0.6221728091
H       -1.7646032023   -1.5670320271    1.0761651665
H       -1.2065114789   -1.1689448227   -0.5503773811
H        1.5122214504    1.9451842185   -0.1004611048
H        0.9548790258    1.5177549643    1.5179628462
H       -2.4602160475    0.7580769617    0.3368879162
H       -1.4458514784    0.7875963810    1.7949168951
29   
Generated by ForceBalance from scan.xyz: Frame 20 of 24
C        1.8776509832    4.4920974030   -3.1475037583
C        0.5343870915    4.5864804549   -2.7665975658
C        2.7632314391    3.7188788405   -2.3886633265
C        0.0784906654    3.9138730771   -1.6296048420
C        2.3031615315    3.0301540436   -1.2629798825
C        0.9593508783    3.1269401888   -0.8775414477
C        0.4508480617    2.4438189795    0.3644946993
C       -1.3091345787   -1.1532188199    0.0819361421
C       -0.7218928809   -0.4109259487   -1.1269467271
C       -1.3549881415   -0.2415769312    1.3169488190
C        0.6354112725    0.2206375931   -0.7850829649
C        0.0218096808    0.3760509407    1.5905931092
N        0.5268349420    1.0730192780    0.4028019599
O        0.0067263847    3.1149378829    1.3004582984
H        2.2332671878    5.0219476167   -4.0274244387
H       -0.1557360132    5.1896043684   -3.3509865656
H        3.8099158533    3.6509446741   -2.6741502856
H       -0.9570789733    4.0041906791   -1.3132239951
H        2.9879897441    2.4221776035   -0.6767517386
H       -0.6854537104   -2.0307352640    0.3031811087
H       -2.3103273819   -1.5310249613   -0.1534495929
H       -1.4074116378    0.3853828130   -1.4438451885
H       -0.5994577118   -1.0912896537   -1.9779283049
H       -1.6851988123   -0.8025023128    2.1988833460
H       -2.0757941352    0.5696983372    1.1594700672
H        1.0105612893    0.8040762810   -1.6239286090
H        1.3707584522   -0.5681965223   -0.5753179376
H       -0.0194755181    1.0934990841    2.4090929983
H        0.7423343693   -0.4115079958    1.8500541963
29   
Generated by ForceBalance from scan.xyz: Frame 21 of 24
C        1.9125934401    4.5619018819   -3.0997552603
C        0.5898920543    4.7580072474   -2.6863602300
C        2.7284087932    3.6552892014   -2.4139446994
C        0.0856306654    4.0526737700   -1.5912064941
C        2.2168094920    2.9329770641   -1.3328053750
C        0.8909203757    3.1245347830   -0.9182011646
C        0.3294387656    2.4302020805    0.2927165648
C       -1.2626674405   -1.2121944959    0.1447769692
C       -0.6837679324   -0.4994668071   -1.0853118533
C       -1.3391074339   -0.2566766847    1.3442334921
C        0.6562257830    0.1780233556   -0.7606781630
C        0.0233522635    0.3978480271    1.6016289579
N        0.5249391812    1.0711664282    0.3972186980
O       -0.2421744885    3.0874657807    1.1677735105
H        2.3077279745    5.1184170177   -3.9457808150
H       -0.0442019802    5.4679223392   -3.2111766369
H        3.7617882476    3.5125835474   -2.7195518360
H       -0.9287087413    4.2215878198   -1.2414123531
H        2.8513263601    2.2313264946   -0.7973604534
H       -0.6194900775   -2.0654604937    0.4024164280
H       -2.2523346363   -1.6228660322   -0.0842350457
H       -1.3864541965    0.2675162300   -1.4352621122
H       -0.5383372285   -1.2063541493   -1.9108084520
H       -1.6641303391   -0.7910811227    2.2444095175
H       -2.0741253491    0.5336884879    1.1518867703
H        1.0153165479    0.7393003594   -1.6210713495
H        1.4115359798   -0.5829957773   -0.5224175047
H       -0.0364506061    1.1355732330    2.4006347443
H        0.7593800707   -0.3668944746    1.8840599675
29   
Generated by ForceBalance from scan.xyz: Frame 22 of 24
C        1.9778705664    4.6307987058   -3.0454250705
C        0.6801712380    4.9112169431   -2.6020952593
C        2.7099514381    3.6004659880   -2.4455051226
C        0.1165237223    4.1620165922   -1.5677071882
C        2.1375330359    2.8379043094   -1.4244384898
C        0.8294446242    3.1020724471   -0.9897505518
C        0.2101696836    2.3915637721    0.1829030555
C       -1.2285530027   -1.2831980370    0.2038691594
C       -0.6652226016   -0.6070636257   -1.0532743718
C       -1.3305204840   -0.2800426222    1.3613489919
C        0.6581433987    0.1163812097   -0.7592128084
C        0.0162586882    0.4157735857    1.5893271643
N        0.5103726477    1.0558023403    0.3624348831
O       -0.4712440303    3.0273307891    0.9929405260
H        2.4210073497    5.2204960442   -3.8439087444
H        0.1143635319    5.7218293538   -3.0540113060
H        3.7282925871    3.3967125596   -2.7665403247
H       -0.8750561203    4.3911272828   -1.1892353950
H        2.7181674825    2.0559189085   -0.9432903511
H       -0.5650365789   -2.1089800420    0.4972434594
H       -2.2072869043   -1.7272426711   -0.0093365026
H       -1.3865712240    0.1271486969   -1.4341545447
H       -0.5013243295   -1.3427601257   -1.8497620641
H       -1.6426261416   -0.7836983944    2.2836282061
H       -2.0833224824    0.4840332911    1.1363076671
H        0.9968311464    0.6488037369   -1.6456515630
H        1.4336270240   -0.6144157040   -0.4934088894
H       -0.0607305751    1.1797580678    2.3618753548
H        0.7700413627   -0.3206007107    1.8986771222
29   
Generated by ForceBalance from scan.xyz: Frame 23 of 24
C        2.0476393735    4.7216548513   -2.9919237835
C        0.7814587480    5.0703749588   -2.5081588010
C        2.6884776524    3.5810353917   -2.4970794433
C        0.1566419748    4.2747674624   -1.5470713490
C        2.0557212345    2.7779947313   -1.5451667880
C        0.7680906892    3.0993706704   -1.0844893482
C        0.0934719097    2.3673443462    0.0458908221
C       -1.1873183614   -1.3389578779    0.2769792588
C       -0.6511259825   -0.7080333173   -1.0143198589
C       -1.3209190171   -0.2799098463    1.3795181360
C        0.6495017901    0.0728635400   -0.7675023820
C        0.0029230256    0.4702613486    1.5639514709
N        0.4849115239    1.0651225231    0.3085310300
O       -0.6829444959    2.9760517544    0.7881972721
H        2.5397484083    5.3448315832   -3.7343748893
H        0.2896406811    5.9699288837   -2.8692104419
H        3.6877278362    3.3253228993   -2.8401187352
H       -0.8098732933    4.5497468767   -1.1366722542
H        2.5841145868    1.9255060309   -1.1305796224
H       -0.4948055939   -2.1250803527    0.6097980103
H       -2.1505065297   -1.8268214527    0.0903786373
H       -1.3986063971   -0.0184989325   -1.4269338187
H       -0.4655668924   -1.4761522963   -1.7747539496
H       -1.6121481024   -0.7439783000    2.3290549083
H       -2.0992194992    0.4455151958    1.1179597988
H        0.9561869290    0.5700148274   -1.6854148541
H        1.4526810315   -0.6174956623   -0.4769788484
H       -0.0974844207    1.2680583095    2.2988978254
H        0.7802850070   -0.2251062071    1.9079817842
29   
Generated by ForceBalance from scan.xyz: Frame 24 of 24
C        2.1080970466    4.8144362220   -2.9306229938
C        0.8831137026    5.2136346399   -2.3849547376
C        2.6536644046    3.5787247298   -2.5687578915
C        0.2017666280    4.3728056510   -1.5046811491
C        1.9676068504    2.7365663265   -1.6904778503
C        0.7089210699    3.1030459687   -1.1822024210
C       -0.0175743968    2.3397513217   -0.1006412949
C       -1.1420366167   -1.3870481131    0.3614882860
C       -0.6272939724   -0.8123153182   -0.9635529723
C       -1.3222147546   -0.2680192021    1.3953436187
C        0.6434009350    0.0305487056   -0.7666538520
C       -0.0285282760    0.5415641604    1.5347353282
N        0.4487764766    1.0798805817    0.2510465536
O       -0.8828906916    2.9129480481    0.5673069387
H        2.6441407903    5.4698977940   -3.6124004269
H        0.4676669843    6.1869576908   -2.6329351815
H        3.6254540593    3.2788283073   -2.9525080294
H       -0.7350400454    4.6800787479   -1.0515749516
H        2.4446318959    1.8181451195   -1.3684217018
H       -0.4201273419   -2.1233779903    0.7423317605
H       -2.0843367242   -1.9231410172    0.2025945942
H       -1.4002729871   -0.1771469538   -1.4145304337
H       -0.4110401133   -1.6149984402   -1.6789466919
H       -1.5981532493   -0.6828883397    2.3719004649
H       -2.1264449256    0.4088626717    1.0875744396
H        0.9210446284    0.4830291619   -1.7162871197
H        1.4744348153   -0.6109786782   -0.4441706100
H       -0.1619931502    1.3767677015    2.2215652110
H        0.7719806323   -0.1025616253    1.9229449466
