31

C      2.01638    3.26521   -4.26714
C      2.10456    2.55573   -3.06737
C      1.49433    2.66527   -5.41840
C      1.14550    0.61448   -4.14342
C      1.66776    1.22399   -2.99504
C      1.07050    1.34484   -5.32576
C      1.39013    1.26038   -0.46402
C     -0.25980    2.18937    1.03571
C     -1.02701    1.06723   -1.08171
C     -0.05360    1.29579    2.26623
C     -1.94838   -0.01903   -0.47304
C      1.77781    0.44556   -1.69664
N      0.06194    1.50779   -0.22189
O      2.26428    1.69131    0.29332
F      0.55866    0.73926   -6.42981
S     -1.28716   -0.04685    2.46481
S     -1.10298   -1.15222    0.69435
H      2.35812    4.29576   -4.31119
H      2.51560    3.03206   -2.18156
H      1.41517    3.19662   -6.36167
H      0.80082   -0.41627   -4.13273
H     -1.29583    2.53433    0.98183
H      0.39282    3.06177    1.13251
H     -0.60516    0.70892   -2.01618
H     -1.64429    1.93597   -1.34362
H      0.95446    0.88144    2.26354
H     -0.17519    1.89437    3.17674
H     -2.78697    0.42464    0.06769
H     -2.36216   -0.63861   -1.27607
H      1.19358   -0.47768   -1.74945
H      2.81924    0.16124   -1.52620
