31

C      4.01357    1.19144    2.11504
C      3.43028    0.39817    1.12556
C      4.17344    0.70770    3.41826
C      3.15153   -1.39543    2.72210
C      2.98852   -0.89978    1.42257
C      3.73915   -0.58494    3.68883
C      1.29245   -0.95889   -0.46710
C     -0.81690    0.20142   -0.69041
C     -0.21895   -0.77322    1.54011
C     -0.38588    1.63082   -1.03682
C      0.02532    0.42237    2.47023
C      2.31817   -1.74201    0.35464
N      0.12871   -0.55505    0.13485
O      1.52046   -0.69140   -1.65034
F      3.88294   -1.07795    4.94732
S      0.28928    2.59453    0.37921
S     -0.86658    1.95985    1.99908
H      4.33470    2.20131    1.87622
H      3.29182    0.79603    0.12496
H      4.61728    1.30793    4.20630
H      2.82187   -2.39421    2.99562
H     -1.76392    0.23216   -0.15024
H     -0.97309   -0.33436   -1.63179
H      0.34628   -1.62407    1.92378
H     -1.27674   -1.05394    1.58290
H      0.42998    1.61333   -1.76302
H     -1.23895    2.16024   -1.47063
H     -0.34124    0.17069    3.47233
H      1.08579    0.66000    2.54363
H      3.05684   -2.08506   -0.37389
H      1.86491   -2.63193    0.80229
