37

C      7.53299   -8.55852   -8.06055
C      6.47570   -7.96475   -8.01060
C      1.78286   -1.11101    0.28823
C      0.79340   -0.67333   -0.60078
C      3.17184   -6.52241   -8.98000
C      4.37909   -7.21306   -9.07169
C      2.56781   -2.21461   -0.04498
C      0.60636   -1.34416   -1.80891
C      2.78096   -5.87783   -7.80349
C      4.84193   -6.62137   -6.76344
C      5.22747   -7.26375   -7.95013
C      2.38548   -2.89396   -1.25888
C      1.39650   -2.45110   -2.15135
C      3.62464   -5.92839   -6.67977
C      2.25704   -4.48609   -5.13932
C      3.24660   -4.09005   -1.60737
C      1.13408   -3.14536   -3.47377
C      2.57682   -4.95066   -2.67628
N      2.18541   -4.10534   -3.80628
N      3.31398   -5.33891   -5.43775
O      1.47102   -4.06050   -5.98484
H      8.46382   -9.08241   -8.11002
H      1.93713   -0.59713    1.23345
H      0.17477    0.18534   -0.35343
H      2.51387   -6.47694   -9.84385
H      4.67412   -7.70824   -9.99127
H      3.33340   -2.56147    0.64658
H     -0.16050   -1.00345   -2.50215
H      1.84972   -5.33201   -7.74977
H      5.50421   -6.67006   -5.90191
H      4.22131   -3.74977   -1.98012
H      3.43634   -4.69238   -0.71181
H      0.15508   -3.64881   -3.44051
H      1.07697   -2.41414   -4.28085
H      3.23772   -5.75419   -3.00102
H      1.67971   -5.43364   -2.25942
H      4.04765   -5.40952   -4.74720
