37

C      4.77428   -1.84006  -10.67656
C      3.78965   -1.82817   -9.96763
C      1.10736   -2.55749    1.41550
C     -0.08695   -2.44391    0.69305
C      0.25607   -1.40661   -8.85555
C      1.38318   -1.41833   -9.67643
C      2.30280   -2.79613    0.73803
C     -0.06524   -2.56712   -0.69558
C      0.35238   -1.77757   -7.51534
C      2.72792   -2.18733   -7.78543
C      2.62155   -1.81034   -9.13671
C      2.33463   -2.91616   -0.65947
C      1.13728   -2.79635   -1.37916
C      1.58873   -2.17043   -6.96882
C      2.65511   -3.01415   -4.85101
C      3.62375   -3.19671   -1.39644
C      1.09230   -2.87947   -2.89579
C      3.34195   -3.93985   -2.69860
N      2.38273   -3.18343   -3.50354
N      1.59665   -2.51231   -5.60089
O      3.75343   -3.28025   -5.34042
H      5.64598   -1.85319  -11.29555
H      1.10249   -2.46825    2.49868
H     -1.02624   -2.26494    1.20946
H     -0.70735   -1.10669   -9.25889
H      1.31733   -1.13119  -10.72096
H      3.23060   -2.89791    1.29737
H     -0.99383   -2.48251   -1.25811
H     -0.53607   -1.76227   -6.88614
H      3.67977   -2.49562   -7.37804
H      4.14225   -2.25805   -1.62831
H      4.29576   -3.79103   -0.76811
H      0.33054   -3.62322   -3.18429
H      0.75128   -1.90198   -3.25755
H      4.24326   -4.05926   -3.29673
H      2.93720   -4.93861   -2.47940
H      0.69226   -2.45309   -5.15755
