31

C     -5.01476    1.66917   -1.57203
C     -4.24193    2.10562   -0.49209
C     -5.31829    0.31310   -1.72494
C     -4.07231   -0.16576    0.32132
C     -3.76069    1.19302    0.45820
C     -4.83730   -0.57273   -0.76579
C     -1.86727    0.67576    2.08677
C     -0.25837    1.47030    0.32389
C      0.38914   -0.21176    2.06795
C     -0.79292    0.95968   -1.03099
C      0.43620   -1.58649    1.40162
C     -2.91353    1.68397    1.61976
N     -0.61888    0.70238    1.51456
O     -2.14966   -0.12935    2.97836
F     -5.12174   -1.89280   -0.89905
S     -0.90240   -0.86188   -1.20810
S      0.89109   -1.54000   -0.38000
H     -5.37709    2.38603   -2.30382
H     -4.00358    3.16191   -0.39248
H     -5.90773   -0.05606   -2.55831
H     -3.71769   -0.90120    1.03573
H      0.83132    1.46667    0.27743
H     -0.56080    2.51699    0.43619
H      0.15974   -0.34850    3.12670
H      1.36514    0.27540    1.98429
H     -1.81842    1.29039   -1.20940
H     -0.16249    1.37198   -1.82440
H      1.21064   -2.19514    1.88267
H     -0.52137   -2.10029    1.50353
H     -2.46652    2.64767    1.36229
H     -3.55451    1.84374    2.49189
