37

C      6.92145   -1.26956   -3.95172
C      6.80828   -2.41500   -4.33553
C      1.63604   -1.85049   -0.11032
C      0.47389   -1.90294   -0.89010
C      7.61893   -5.88600   -5.45175
C      7.79141   -4.56721   -5.03030
C      2.71170   -2.68181   -0.42099
C      0.40796   -2.78414   -1.96875
C      6.34021   -6.42674   -5.59528
C      5.37133   -4.30384   -4.95123
C      6.66033   -3.77084   -4.77445
C      2.65268   -3.57222   -1.50407
C      1.48888   -3.61936   -2.28741
C      5.20589   -5.63691   -5.34316
C      2.68969   -5.70601   -5.10819
C      3.83514   -4.45995   -1.82934
C      1.34894   -4.56648   -3.46285
C      3.42893   -5.63315   -2.71744
N      2.63266   -5.14781   -3.85065
N      3.92860   -6.22949   -5.51303
O      1.71700   -5.77407   -5.86032
H      7.02111   -0.25795   -3.61945
H      1.69987   -1.16804    0.73331
H     -0.37136   -1.25971   -0.65961
H      8.48740   -6.50722   -5.65327
H      8.78404   -4.14892   -4.89764
H      3.61515   -2.64605    0.18491
H     -0.49270   -2.82387   -2.57878
H      6.21179   -7.46480   -5.89163
H      4.50711   -3.67459   -4.77722
H      4.61071   -3.87385   -2.33507
H      4.28257   -4.84325   -0.90536
H      0.63185   -5.36465   -3.21573
H      0.93927   -4.04274   -4.32775
H      4.30359   -6.16961   -3.07829
H      2.81877   -6.34532   -2.14119
H      3.81228   -6.74203   -6.38047
