31

C      0.53263    1.15410   -5.83570
C      0.62280    0.28165   -4.74619
C      0.99711    2.46776   -5.73369
C      1.65626    2.02328   -3.42419
C      1.18372    0.70709   -3.53399
C      1.55040    2.86958   -4.52095
C      0.97082    0.40406   -1.01283
C     -0.61554    1.14562    0.65217
C     -1.46413    0.34573   -1.57752
C     -0.39300    0.08203    1.73534
C     -2.35173   -0.84714   -1.13465
C      1.30218   -0.24259   -2.35633
N     -0.34327    0.64744   -0.69980
O      1.87655    0.70696   -0.23131
F      2.00709    4.14362   -4.40506
S     -1.63154   -1.27070    1.75968
S     -1.47348   -2.11897   -0.14954
H      0.09733    0.81053   -6.77015
H      0.25858   -0.73868   -4.84124
H      0.93777    3.16716   -6.56173
H      2.10178    2.38654   -2.50237
H     -1.64595    1.50994    0.67948
H      0.05607    1.98527    0.85310
H     -1.08006    0.16868   -2.57832
H     -2.09802    1.23774   -1.65289
H      0.61174   -0.33238    1.65373
H     -0.49404    0.54270    2.72514
H     -3.19959   -0.51136   -0.53404
H     -2.75215   -1.35524   -2.01871
H      0.68743   -1.13231   -2.52014
H      2.33785   -0.57724   -2.25643
