38

C      2.49369   -0.43320    0.09111
C      2.36623   -2.24176    1.67385
C      1.38664    0.17628    0.68498
C      1.25299   -1.65291    2.27137
C     -2.32468    1.09183    2.89714
C      3.00275   -1.64757    0.57237
C      0.76123   -0.44470    1.76824
C     -1.56662    0.79742    4.07371
C     -1.51123    0.64665    1.85078
C     -6.08466    3.26475    0.88899
C     -6.55633    2.35846    2.83181
C     -3.63425    1.69857    2.87835
C      4.22331   -2.28318   -0.05082
C     -1.94525    1.05385    5.50021
C     -5.33342    3.65451   -0.33565
N     -0.40305    0.23348    3.77121
N     -7.31636    3.59288    1.19882
N     -7.61963    3.01277    2.42732
N     -4.27306    1.94084    1.78356
N     -0.36933    0.15216    2.40073
N     -5.53656    2.49097    1.89902
S     -6.48363    1.34987    4.27882
Cl    -1.83368    0.60458    0.16684
H      2.97411    0.05351   -0.75420
H      2.74285   -3.18330    2.06689
H      1.02249    1.12831    0.31401
H      0.76412   -2.11318    3.12358
H     -4.04072    1.95875    3.85892
H      5.12900   -2.01539    0.50651
H      4.14938   -3.37481   -0.04883
H      4.36268   -1.95400   -1.08425
H     -2.87872    0.54443    5.76194
H     -1.15420    0.68924    6.15848
H     -2.08678    2.12328    5.68945
H     -4.46497    4.27372   -0.08908
H     -4.96635    2.77080   -0.86597
H     -6.00280    4.21963   -0.98595
H     -7.82049    1.39851    4.44916
