35

C     -4.82412   -1.23615   -0.06217
C     -4.96131   -0.11402   -0.90180
C     -0.76554   -1.82823   -1.27785
C      0.86518   -0.42984    1.60471
C      0.99303   -1.02608    0.20245
C     -0.61535    0.61804   -0.66896
C     -0.81788    1.24264    0.72477
C      0.46220    1.05530    1.57217
C     -2.09084    0.70515    1.38932
C      0.32063    1.61698    2.98932
C     -2.01590   -1.56614   -2.13580
N     -3.69925   -1.88176   -0.39311
N     -3.91813   -0.08088   -1.74107
N     -3.19654   -1.15130   -1.38905
N     -0.23381   -0.79413   -0.56604
O     -0.27956   -2.96047   -1.29263
O      1.46923    1.81710    0.86356
H     -5.45619   -1.59469    0.73883
H     -5.73025    0.64554   -0.93988
H      0.12483   -0.99878    2.17657
H      1.82287   -0.53761    2.13093
H      1.83354   -0.56066   -0.32777
H      1.16627   -2.10031    0.24122
H     -1.53047    0.72505   -1.24780
H      0.18282    1.15670   -1.19250
H     -0.92906    2.32300    0.57258
H     -2.05587   -0.37876    1.52754
H     -2.95761    0.92350    0.76018
H     -2.26936    1.17062    2.36200
H     -0.02051    2.65653    2.95768
H      1.29105    1.59323    3.50045
H     -0.37940    1.03507    3.59440
H     -2.22979   -2.51025   -2.63784
H     -1.84013   -0.79419   -2.88602
H      2.30111    1.74305    1.35838
