37

C      0.29168   -1.79160   11.74633
C     -0.30946   -1.89051   10.69700
C      2.00077   -2.26568   -0.78846
C      0.61727   -2.39894   -0.61734
C     -3.10772   -1.97340    8.23462
C     -2.42515   -1.85940    9.44519
C      2.84367   -2.34795    0.31962
C      0.09939   -2.60832    0.66015
C     -2.41486   -2.22740    7.05203
C     -0.31865   -2.26195    8.27212
C     -1.02614   -2.00461    9.46066
C      2.33064   -2.55315    1.60920
C      0.94435   -2.68040    1.77670
C     -1.01479   -2.37320    7.06056
C      0.94588   -2.88279    5.56717
C      3.24092   -2.66596    2.81015
C      0.30781   -2.86847    3.14360
C      2.59539   -3.53152    3.88783
N      1.27568   -2.99850    4.22685
N     -0.39496   -2.61036    5.81641
O      1.78081   -3.00316    6.46446
H      0.82688   -1.70677   12.66804
H      2.41691   -2.10709   -1.77990
H     -0.04987   -2.34396   -1.47343
H     -4.18853   -1.86427    8.20749
H     -2.95666   -1.66195   10.37057
H      3.92010   -2.25805    0.18838
H     -0.97598   -2.71560    0.79404
H     -2.96137   -2.31281    6.11421
H      0.75490   -2.38091    8.29087
H      4.20321   -3.09767    2.51475
H      3.44581   -1.67247    3.22808
H     -0.31465   -1.98460    3.32831
H     -0.36341   -3.74273    3.10134
H      2.49729   -4.56596    3.52783
H      3.18495   -3.54162    4.80252
H     -1.03819   -2.66365    5.04091
