35

C      1.82062   -4.78550   -1.85289
C      1.76255   -5.36807   -0.57210
C     -1.01827   -1.81148   -0.90484
C      0.88678   -0.55973    1.81130
C      0.99516   -1.46804    0.57953
C      0.14721    0.33238   -0.85188
C     -0.05401    1.28295    0.34035
C      0.96565    0.93218    1.45750
C     -1.51919    1.28574    0.80068
C      0.79206    1.79604    2.70999
C     -1.07543   -3.30533   -0.54185
N      0.78353   -3.94937   -1.98883
N      0.69032   -4.88338    0.06749
N      0.14623   -4.04591   -0.82255
N      0.01915   -1.06591   -0.43532
O     -1.92638   -1.35173   -1.60041
O      2.30590    1.11542    0.94257
H      2.53402   -4.92159   -2.65429
H      2.41805   -6.08436   -0.09579
H     -0.05791   -0.75693    2.32812
H      1.69971   -0.79732    2.50546
H      1.99965   -1.39261    0.14946
H      0.84123   -2.50215    0.87720
H     -0.59211    0.52058   -1.62915
H      1.14995    0.46757   -1.27090
H      0.19113    2.29685   -0.01025
H     -1.82540    0.30761    1.18305
H     -2.17665    1.51846   -0.04178
H     -1.69846    2.02806    1.58297
H      0.80492    2.86309    2.45377
H      1.61504    1.60065    3.40394
H     -0.14927    1.58851    3.22561
H     -1.89634   -3.71912   -1.12885
H     -1.28959   -3.45303    0.51811
H      2.41177    2.05391    0.71768
