31

C      0.90483    2.73952    2.05312
C      1.12713    1.56282    1.85696
C      0.84726   -1.92661    0.55679
C      6.85549   -3.50456    5.56499
C      0.56750   -0.57725    0.76426
C      5.74749   -3.19974    4.77094
C      7.77103   -4.47567    5.15230
C      1.92641   -2.55650    1.18272
C      2.47483   -0.45056    2.25924
C      6.46895   -4.86500    3.16591
C      1.38996    0.17364    1.62530
C      5.55512   -3.87671    3.55675
C      7.58690   -5.17361    3.94800
C      2.74843   -1.80965    2.04475
C      4.38725   -3.62370    2.64562
C      8.55365   -6.25512    3.52393
N      3.85148   -2.35478    2.73418
O      3.96692   -4.48856    1.87889
H      0.70576    3.77638    2.22280
H      0.21522   -2.50887   -0.10841
H      7.00142   -2.98895    6.51052
H     -0.27249   -0.09730    0.27227
H      5.02475   -2.47056    5.12875
H      8.63395   -4.70017    5.77566
H      2.14071   -3.60169    1.01025
H      3.10457    0.13659    2.92373
H      6.28531   -5.39038    2.23290
H      8.26004   -7.22401    3.94526
H      8.57828   -6.36442    2.43621
H      9.56960   -6.04123    3.86899
H      4.36442   -1.69634    3.30510
