21   
Generated by ForceBalance from scan.xyz: Frame 1 of 24
C       -2.2010541147   -2.1004951545    3.6729492402
C       -0.6088279494   -1.6355216017    2.1846916444
C       -0.9105257909   -2.4755152954    3.2451758940
C       -0.8523517705    0.2013804505   -0.0507381522
C       -1.6402382304    1.6169598400    1.8883465711
C       -3.2938114620    0.2699489201    0.5300115121
C       -1.8659354701    0.3193866781    1.0943509426
N       -2.6651054918   -1.0946846628    2.9273205430
N       -1.6921044451   -0.8261214826    2.0237101747
Br       0.1920460540   -3.8471875939    3.9477791303
H       -2.7995072845   -2.5174287702    4.4725826517
H        0.2718494223   -1.5818459192    1.5642633889
H       -0.9516872206   -0.7539359400   -0.5749412165
H       -1.0368092570    1.0036094170   -0.7700849351
H        0.1792087015    0.3079843214    0.2987439120
H       -2.3559942140    1.6858874356    2.7113834387
H       -0.6286278954    1.6446907786    2.3056100494
H       -1.7703077092    2.4870549841    1.2370426370
H       -4.0313565413    0.3302610114    1.3313054334
H       -3.4428633717    1.1108529675   -0.1540704392
H       -3.4600347473   -0.6610804263   -0.0204441343
21   
Generated by ForceBalance from scan.xyz: Frame 2 of 24
C       -2.2471715939   -2.2544034591    3.5471982533
C       -0.5391413288   -1.5093383142    2.3261932355
C       -0.8660667683   -2.4228581886    3.3152308006
C       -0.9097400477    0.1374406180   -0.0940825799
C       -1.5477679311    1.5818202488    1.8849603940
C       -3.3145730865    0.3204586161    0.5960198023
C       -1.8645592289    0.2982552329    1.0982289263
N       -2.7398645280   -1.2984060336    2.7558276814
N       -1.6953171052   -0.8609150291    2.0123093791
Br       0.3105954500   -3.6483804041    4.1544016187
H       -2.8894848638   -2.7842136882    4.2386324417
H        0.4061627789   -1.3030769837    1.8485582393
H       -1.0752651105   -0.8167080006   -0.6027923735
H       -1.0896915233    0.9448029930   -0.8092467742
H        0.1411276852    0.1972924629    0.2044675739
H       -2.2210643662    1.6769410899    2.7413713542
H       -0.5178364776    1.5688485013    2.2552914869
H       -1.6725455446    2.4605015120    1.2442717187
H       -4.0186290936    0.4316309355    1.4211813525
H       -3.4373778488    1.1626284443   -0.0915467267
H       -3.5577789992   -0.6037102628    0.0642168037
21   
Generated by ForceBalance from scan.xyz: Frame 3 of 24
C       -2.2851576758   -2.3760016502    3.3902195631
C       -0.5346936226   -1.3728354084    2.4457479831
C       -0.8750320109   -2.3675683945    3.3476886657
C       -0.9769233860    0.0882216483   -0.1518044609
C       -1.4696385719    1.5844254242    1.8323289311
C       -3.3407497265    0.3908562336    0.6386232234
C       -1.8743230367    0.3060438875    1.0774071608
N       -2.7820238214   -1.4466513665    2.5698598073
N       -1.7096859329   -0.8508432192    1.9958779569
Br       0.3213591642   -3.4812918033    4.3062438735
H       -2.9437011906   -3.0101595140    3.9694191252
H        0.4327212041   -1.0298173736    2.1111929543
H       -1.2259503197   -0.8532221132   -0.6498495600
H       -1.1245000666    0.9066345990   -0.8624402125
H        0.0847266300    0.0695166595    0.1118480467
H       -2.0973135677    1.7181839652    2.7180704844
H       -0.4249578071    1.5400312681    2.1553594903
H       -1.5897896068    2.4591960270    1.1856098870
H       -4.0041002269    0.5482441205    1.4901580187
H       -3.4475233732    1.2311246018   -0.0539590939
H       -3.6551558065   -0.5245860138    0.1314415236
21   
Generated by ForceBalance from scan.xyz: Frame 4 of 24
C       -2.2962827385   -2.5132947231    3.2042730996
C       -0.5684083042   -1.2727493683    2.5435366753
C       -0.8999092567   -2.3604077036    3.3347097108
C       -1.0579058876    0.0454285331   -0.1969828097
C       -1.4162394479    1.5877168099    1.7803147320
C       -3.3768047674    0.4511298273    0.6883117107
C       -1.8975996278    0.3140233369    1.0638059625
N       -2.7931550914   -1.5825339181    2.3852205697
N       -1.7342168059   -0.8366616618    1.9906332572
Br       0.2907709556   -3.4103745180    4.3692805437
H       -2.9452398944   -3.2479823366    3.6628961949
H        0.3877264110   -0.8091917980    2.3513806478
H       -1.3785024919   -0.8820210897   -0.6802218274
H       -1.1792737438    0.8682759976   -0.9079697125
H        0.0073882899   -0.0404966670    0.0377724214
H       -1.9934598509    1.7540843807    2.6944273217
H       -0.3577438242    1.5235475951    2.0499496967
H       -1.5438461157    2.4549890381    1.1254194429
H       -3.9973276714    0.6253065741    1.5694578327
H       -3.4827399596    1.3014765144    0.0079725807
H       -3.7464680072   -0.4470833272    0.1897679047
21   
Generated by ForceBalance from scan.xyz: Frame 5 of 24
C       -2.2760151695   -2.6277497391    3.0178765657
C       -0.6189030350   -1.1821565943    2.6623821988
C       -0.9306839103   -2.3501066171    3.3388096630
C       -1.1111989593    0.0020947313   -0.2276764198
C       -1.3446054929    1.5900832842    1.7290792592
C       -3.3849702596    0.5153292317    0.7325235865
C       -1.8987716173    0.3241806725    1.0546388123
N       -2.7615408932   -1.6939579035    2.1957100250
N       -1.7482736626   -0.8185310048    1.9932155405
Br       0.2231419656   -3.3460863125    4.4644890535
H       -2.8978491466   -3.4495899416    3.3482983411
H        0.3002376040   -0.6172039800    2.6249142023
H       -1.4887716278   -0.9165176462   -0.6860226498
H       -1.2141194831    0.8185128963   -0.9493039344
H       -0.0461794617   -0.1329296963   -0.0150825923
H       -1.8681267232    1.7883231962    2.6688198699
H       -0.2744319330    1.5084008771    1.9405857710
H       -1.4841190507    2.4488550776    1.0660528903
H       -3.9646416570    0.7054523252    1.6390339347
H       -3.4873323693    1.3744493400    0.0627688484
H       -3.8043973256   -0.3652513060    0.2438923981
21   
Generated by ForceBalance from scan.xyz: Frame 6 of 24
C       -2.1217010443   -2.7840182578    2.8744074627
C       -0.6207072640   -1.1390576677    2.8064310787
C       -0.8721569341   -2.3731554505    3.3838181301
C       -1.1577936609   -0.0771961291   -0.2445373114
C       -1.2295450138    1.5283310324    1.7035563170
C       -3.3603113364    0.5106686905    0.8478342552
C       -1.8619973454    0.2760632587    1.0773930317
N       -2.6088540508   -1.8649637212    2.0371450474
N       -1.6931184541   -0.8668985552    2.0117481022
Br       0.2382710408   -3.2917789302    4.6141691969
H       -2.6767850897   -3.6890021738    3.0847443186
H        0.2185545778   -0.4706598930    2.9211298283
H       -1.5971094635   -0.9792444886   -0.6796700651
H       -1.2636213085    0.7425309797   -0.9622007346
H       -0.0905389832   -0.2571827949   -0.0818553685
H       -1.6594673055    1.7350165194    2.6880472886
H       -0.1444029575    1.4365535845    1.8077039334
H       -1.4214179687    2.3887429835    1.0565745471
H       -3.8699009397    0.7315167320    1.7899421391
H       -3.4849565445    1.3636465091    0.1740688582
H       -3.8352098048   -0.3642497168    0.4029651951
21   
Generated by ForceBalance from scan.xyz: Frame 7 of 24
C       -2.0241848518   -2.8565070929    2.7056267814
C       -0.7410542372   -1.0497506615    2.9421934859
C       -0.9400027543   -2.3290350747    3.4372993454
C       -1.2416187056   -0.0859441869   -0.3012357906
C       -1.1542064124    1.5132999766    1.6450459887
C       -3.3644110082    0.5640867696    0.9157342155
C       -1.8613655875    0.2852864858    1.0569662757
N       -2.4646749405   -1.9631861269    1.8162998634
N       -1.6817468902   -0.8689309124    1.9742434073
Br       0.0438578352   -3.1689703366    4.8219829369
H       -2.4944288434   -3.8274003376    2.7929372239
H       -0.0212258186   -0.2965182729    3.2212113780
H       -1.7326811660   -0.9716052100   -0.7124782665
H       -1.3589108988    0.7400955220   -1.0098392749
H       -0.1738571345   -0.3007644844   -0.1929809457
H       -1.5235532943    1.7451887618    2.6486882040
H       -0.0687661066    1.3819321304    1.6887812189
H       -1.3521744227    2.3760837732    1.0035681464
H       -3.8041929575    0.8137530921    1.8861517831
H       -3.5141464029    1.4092194546    0.2370532034
H       -3.8860739329   -0.3070281409    0.5172558064
21   
Generated by ForceBalance from scan.xyz: Frame 8 of 24
C       -1.8450906060   -2.9341221132    2.5790316671
C       -0.8525968271   -1.0001654113    3.0714685642
C       -0.9894070842   -2.3085298999    3.5092377571
C       -1.3225655672   -0.0930219557   -0.3512932307
C       -1.0416411510    1.4736472094    1.5996559056
C       -3.3278335901    0.5809358235    1.0368836063
C       -1.8221173073    0.2721732680    1.0557883065
N       -2.2131956523   -2.0699008391    1.6300573677
N       -1.6039875368   -0.9004136630    1.9405326416
Br      -0.1843864445   -3.0749000707    5.0440272465
H       -2.1998401298   -3.9565329138    2.5634973958
H       -0.2879163155   -0.1803070507    3.4862453657
H       -1.8592909596   -0.9641196362   -0.7323536783
H       -1.4831968064    0.7474337994   -1.0336628975
H       -0.2533177549   -0.3263615802   -0.3325575708
H       -1.3780817221    1.7572493354    2.6017380384
H        0.0352025157    1.2801739756    1.6274115091
H       -1.2079850781    2.3287130864    0.9392669866
H       -3.6834230131    0.8286656069    2.0419935364
H       -3.5255691382    1.4323826326    0.3782882164
H       -3.8894828541   -0.2825982613    0.6750500853
21   
Generated by ForceBalance from scan.xyz: Frame 9 of 24
C       -1.6584924345   -3.0009813252    2.5462176501
C       -1.0293387700   -0.9724737588    3.2210265788
C       -1.0893198717   -2.2963644911    3.6272081276
C       -1.4070337525   -0.1306078793   -0.3491670875
C       -0.9584074986    1.4224194785    1.5796631699
C       -3.2977015691    0.5673406843    1.1724938593
C       -1.7972341612    0.2358887283    1.0901239085
N       -1.9330505445   -2.1677423114    1.5395882888
N       -1.5407438949   -0.9409042655    1.9592962526
Br      -0.5072989707   -2.9943992577    5.2899712798
H       -1.8691903108   -4.0591206064    2.4606351292
H       -0.6600561619   -0.0995510580    3.7358518488
H       -1.9848521784   -0.9854171742   -0.7026384742
H       -1.5983888759    0.7238489044   -1.0053445248
H       -0.3444768065   -0.3854987345   -0.4097133766
H       -1.2648122954    1.7608094054    2.5741481889
H        0.1076645638    1.1764338308    1.6020619252
H       -1.0982951634    2.2612366476    0.8927179583
H       -3.5848858370    0.8101918791    2.2004707553
H       -3.5317449513    1.4261860069    0.5354478268
H       -3.8924587074   -0.2871170201    0.8399734738
21   
Generated by ForceBalance from scan.xyz: Frame 10 of 24
C       -1.4478572391   -3.0153210165    2.4517966033
C       -1.2002501508   -0.9494652752    3.2481335119
C       -1.1562510941   -2.2829971255    3.6215190515
C       -1.4985224020   -0.1240115663   -0.3978658497
C       -0.8727281542    1.4046529481    1.4982110078
C       -3.2628429127    0.6192873445    1.2429957459
C       -1.7804827246    0.2445970132    1.0644503043
N       -1.6607563542   -2.1887265396    1.4249282961
N       -1.4979473401   -0.9378479297    1.9188961657
Br      -0.7642289407   -2.9603387801    5.3472609184
H       -1.5033135018   -4.0878604315    2.3179035137
H       -1.0361994493   -0.0543633851    3.8279330971
H       -2.1340485694   -0.9459242767   -0.7284373664
H       -1.6927997202    0.7505434762   -1.0259199955
H       -0.4558251513   -0.4259144268   -0.5314592451
H       -1.1038521463    1.7559281339    2.5081375281
H        0.1811807325    1.1136016240    1.4613796853
H       -1.0205776150    2.2490268303    0.8193632044
H       -3.4794606074    0.8712445218    2.2859222043
H       -3.5139069503    1.4840460984    0.6205905381
H       -3.9031383248   -0.2175623233    0.9504764901
21   
Generated by ForceBalance from scan.xyz: Frame 11 of 24
C       -1.2833337973   -3.0221274128    2.5140637602
C       -1.4168810115   -0.9572856169    3.3391299580
C       -1.2609725395   -2.2815186844    3.7144962283
C       -1.5625367161   -0.1906382738   -0.3550449210
C       -0.8064181274    1.3417307124    1.4878933210
C       -3.2388741685    0.6583063059    1.3223688457
C       -1.7805672130    0.2153297414    1.1068988088
N       -1.4448538104   -2.2089328141    1.4670833508
N       -1.5171956031   -0.9579045106    1.9806303461
Br      -1.0524761665   -2.9384855533    5.4795351761
H       -1.1863656523   -4.0907533046    2.3729916650
H       -1.4577232839   -0.0588581458    3.9362750393
H       -2.2481254831   -0.9841854566   -0.6554263818
H       -1.7351002087    0.6851181010   -0.9878151927
H       -0.5426216519   -0.5469316715   -0.5189734303
H       -0.9579710916    1.6866184778    2.5149127188
H        0.2301500736    1.0078285346    1.3852008038
H       -0.9620281753    2.1992375189    0.8268046237
H       -3.4135785366    0.9556956464    2.3610388265
H       -3.4733873647    1.5121747929    0.6791160379
H       -3.9244290840   -0.1586427983    1.0794749834
21   
Generated by ForceBalance from scan.xyz: Frame 12 of 24
C       -1.0716823546   -2.9885421097    2.5355517754
C       -1.5737794255   -0.9797404650    3.3563784929
C       -1.2787838594   -2.2785488108    3.7369169074
C       -1.6296526637   -0.2218282202   -0.3480766547
C       -0.7452992422    1.2955134093    1.4529118373
C       -3.2091302830    0.7133940390    1.3720530414
C       -1.7788828373    0.2073290456    1.1153617037
N       -1.2275709137   -2.1811487567    1.4830818056
N       -1.5312137452   -0.9650292439    1.9950825827
Br      -1.1799795707   -2.9424418234    5.5089063147
H       -0.8204600296   -4.0321467349    2.3977024687
H       -1.7994019083   -0.1072081063    3.9511977619
H       -2.3406274536   -1.0087235740   -0.6070961330
H       -1.8185643388    0.6483734260   -0.9838377026
H       -0.6248870056   -0.5964902300   -0.5532098222
H       -0.8352886962    1.6298725896    2.4908874110
H        0.2705212251    0.9194780581    1.3006351282
H       -0.8949396656    2.1653955808    0.8061622491
H       -3.3396884567    1.0484317249    2.4055223289
H       -3.4288288356    1.5599456221    0.7145376011
H       -3.9366890832   -0.0790042793    1.1740225141
21   
Generated by ForceBalance from scan.xyz: Frame 13 of 24
C       -0.8945646325   -2.9308485925    2.5246293293
C       -1.7435789525   -1.0331710010    3.3247274852
C       -1.3203695303   -2.2947081618    3.7095933663
C       -1.7061404100   -0.2236791755   -0.3631160291
C       -0.6958998125    1.2523516164    1.4102836560
C       -3.1847282011    0.7864243333    1.4004128274
C       -1.7896421593    0.2134517611    1.1036977060
N       -1.0415058298   -2.1145751627    1.4779661616
N       -1.5650952340   -0.9690600750    1.9757541388
Br      -1.3306275312   -3.0024752713    5.4672606933
H       -0.4989174738   -3.9296942893    2.3941169929
H       -2.1451468875   -0.2191346881    3.9091251846
H       -2.4497183717   -0.9915032283   -0.5903217037
H       -1.8962115013    0.6481284224   -0.9963201255
H       -0.7217474419   -0.6274005117   -0.6037770608
H       -0.7414273123    1.5801154310    2.4534955683
H        0.2949309112    0.8266961794    1.2273757215
H       -0.8202214766    2.1317854751    0.7707637210
H       -3.2719764971    1.1434197161    2.4307603464
H       -3.3790567489    1.6367823554    0.7403259151
H       -3.9573796340    0.0310924508    1.2301134822
21   
Generated by ForceBalance from scan.xyz: Frame 14 of 24
C       -0.6804227823   -2.8486502644    2.6573730622
C       -1.8699660631   -1.1025279708    3.3639853805
C       -1.3316399579   -2.3075839114    3.7855221377
C       -1.7777581615   -0.2877787242   -0.2954035351
C       -0.6247072865    1.1947945793    1.3870735400
C       -3.1231887314    0.8257427136    1.5136028987
C       -1.7698792505    0.1909735180    1.1621469567
N       -0.8056479526   -2.0305033892    1.6095280200
N       -1.5380226392   -0.9788340007    2.0486267436
Br      -1.4704499167   -3.0620115521    5.5182130194
H       -0.1431627941   -3.7837699533    2.5665842493
H       -2.4482888106   -0.3677102010    3.9023745160
H       -2.5658933929   -1.0279992537   -0.4600905084
H       -1.9623683685    0.5709141690   -0.9477937691
H       -0.8246428880   -0.7415663218   -0.5681097425
H       -0.6008937711    1.5339482727    2.4275109403
H        0.3375101701    0.7304447358    1.1538725546
H       -0.7543553287    2.0699882062    0.7425227457
H       -3.1294349038    1.2576542081    2.5186720451
H       -3.3322281617    1.6369125699    0.8107692747
H       -3.9314046794    0.0918683499    1.4428841554
21   
Generated by ForceBalance from scan.xyz: Frame 15 of 24
C       -0.5174566608   -2.7325067504    2.7042829258
C       -2.0300221609   -1.2010776143    3.2813160108
C       -1.4042643999   -2.3524859980    3.7329478471
C       -1.8636607922   -0.3027938623   -0.2913940139
C       -0.5815072871    1.1823381761    1.2985524992
C       -3.0747680251    0.8932934224    1.5621892691
C       -1.7648091950    0.2093985034    1.1529037585
N       -0.5892225872   -1.8721278835    1.6856477290
N       -1.5150405509   -0.9510435773    2.0456994212
Br      -1.7050655086   -3.2258289924    5.3875126875
H        0.1512843699   -3.5825058846    2.6634575711
H       -2.7816721463   -0.5848245389    3.7489382637
H       -2.6931048184   -1.0089745309   -0.3962647506
H       -2.0380945656    0.5421182617   -0.9644284798
H       -0.9439624588   -0.8083680917   -0.5881385416
H       -0.4946281449    1.5346716788    2.3312626241
H        0.3522918776    0.6859459297    1.0228243365
H       -0.7222292258    2.0506636729    0.6470680469
H       -3.0117866327    1.3406996216    2.5588185451
H       -3.2878399271    1.6999702697    0.8558284052
H       -3.9152817992    0.1928658973    1.5408363951
21   
Generated by ForceBalance from scan.xyz: Frame 16 of 24
C       -0.5335114888   -1.8886683954    3.7604947591
C       -1.9361006890   -2.2089598445    2.0582239506
C       -1.3548849837   -2.8525606178    3.1399540906
C       -0.4159325187    0.6263301030    0.5058825544
C       -2.3527968630    1.3385406324    1.9702424005
C       -2.7273202814   -0.2723517594    0.0715290826
C       -1.7420091171    0.1909550709    1.1499222907
N       -0.6022172111   -0.7269131196    3.1058774731
N       -1.4566071438   -0.9348438871    2.0753507590
Br      -1.6249364107   -4.6549828832    3.6589018134
H        0.0910103846   -1.9925179317    4.6383305720
H       -2.6286193356   -2.5753922206    1.3171367298
H        0.0241770176   -0.1971323287   -0.0653488615
H       -0.5896314135    1.4668461790   -0.1731981081
H        0.2974994623    0.9343105984    1.2728595483
H       -3.2909065660    1.0222006062    2.4370823923
H       -1.6643518103    1.6529401453    2.7571689810
H       -2.5593763400    2.1935239525    1.3189852668
H       -3.6828811305   -0.5874663704    0.5020976159
H       -2.9271570908    0.5633971356   -0.6041298896
H       -2.3190064086   -1.0926843314   -0.5269171708
21   
Generated by ForceBalance from scan.xyz: Frame 17 of 24
C       -0.7201900158   -1.8212808954    3.8809960721
C       -1.7854054042   -2.2198173024    1.9645745815
C       -1.2797721398   -2.8477046039    3.0921237607
C       -0.4322733246    0.5413894844    0.4655367346
C       -2.2706313386    1.4349222482    1.9595319533
C       -2.8155874812   -0.2115699230    0.1402120185
C       -1.7625598912    0.2211126036    1.1686485735
N       -0.8684654165   -0.6381512240    3.2800191884
N       -1.5217482028   -0.8929363602    2.1208933085
Br      -1.3508715519   -4.7013222675    3.4792977849
H       -0.2310870185   -1.8944911151    4.8436999429
H       -2.2993107264   -2.6280762201    1.1086623441
H       -0.0648847997   -0.3317933069   -0.0827112488
H       -0.5668550162    1.3644338345   -0.2434764915
H        0.3237121815    0.8322968353    1.1993654780
H       -3.2095435543    1.1986953123    2.4695390561
H       -1.5415405868    1.7434281688    2.7098660077
H       -2.4470642315    2.2676302065    1.2719614132
H       -3.7451307717   -0.5232061477    0.6263321456
H       -3.0420233567    0.6361864321   -0.5117905351
H       -2.4586918801   -1.0264947770   -0.4968786130
21   
Generated by ForceBalance from scan.xyz: Frame 18 of 24
C       -0.9096078170   -1.8378192483    3.9659810622
C       -1.6002385189   -2.2457585114    1.8875060158
C       -1.1949978468   -2.8749299298    3.0534984012
C       -0.4534076168    0.4505127805    0.4248472197
C       -2.1870413384    1.4573388739    1.9643636780
C       -2.8858142487   -0.1924373698    0.2042465843
C       -1.7701044364    0.2052190793    1.1827171356
N       -1.1234520157   -0.6472642710    3.4004230006
N       -1.5516615149   -0.9083840211    2.1419302692
Br      -1.0740789179   -4.7433204848    3.3453696533
H       -0.5714407530   -1.9092639166    4.9915989982
H       -1.9131998716   -2.6594999939    0.9413917011
H       -0.1468213334   -0.4452879566   -0.1241704782
H       -0.5742597318    1.2693037593   -0.2915141212
H        0.3440025898    0.7156486188    1.1247586067
H       -3.1059970512    1.2770901702    2.5292098801
H       -1.4115653227    1.7623855167    2.6675783465
H       -2.3653138253    2.2723474807    1.2565137523
H       -3.8014861960   -0.4593053526    0.7400699574
H       -3.1055159076    0.6538203401   -0.4524772336
H       -2.5967665686   -1.0321160073   -0.4346459955
21   
Generated by ForceBalance from scan.xyz: Frame 19 of 24
C       -1.1553471010   -1.7697478611    4.0267025196
C       -1.4742613617   -2.1684391793    1.8586214766
C       -1.1976854945   -2.7975557432    3.0613598177
C       -0.5070910994    0.4355784795    0.3499521110
C       -2.1205528360    1.5510193004    1.9339622424
C       -2.9766715054   -0.1086730852    0.2535137991
C       -1.7984224017    0.2623912460    1.1690275383
N       -1.3892396202   -0.5845641574    3.4572432169
N       -1.5880609972   -0.8410162805    2.1424385490
Br      -0.9426647527   -4.6555464779    3.3323021195
H       -0.9727633139   -1.8441639535    5.0908413978
H       -1.5923817063   -2.5744812159    0.8653530726
H       -0.2650851908   -0.4757262865   -0.2056444847
H       -0.6223779710    1.2528183770   -0.3688707232
H        0.3337521032    0.6688285566    1.0095252031
H       -3.0130749459    1.4308638575    2.5527650777
H       -1.2967787508    1.8452386062    2.5858030848
H       -2.3005350620    2.3497282503    1.2081573622
H       -3.8816338839   -0.2875421821    0.8413355912
H       -3.1715722364    0.7120259789   -0.4429019187
H       -2.7692624323   -1.0027604424   -0.3417449620
21   
Generated by ForceBalance from scan.xyz: Frame 20 of 24
C       -1.3671640597   -1.7670917101    4.0502124355
C       -1.3171538593   -2.1186383160    1.8514264739
C       -1.1775396626   -2.7633443337    3.0695086884
C       -0.5456314519    0.4160793389    0.2811335893
C       -2.0513648007    1.5903389931    1.9178433945
C       -3.0302994138   -0.0771363744    0.3087202690
C       -1.8005725378    0.2818985570    1.1609116142
N       -1.6063310924   -0.5854816233    3.4751833756
N       -1.5722086641   -0.8124209049    2.1407669423
Br      -0.8086655897   -4.6022455744    3.3395027367
H       -1.3389420078   -1.8605157874    5.1280414508
H       -1.2496485009   -2.4993476388    0.8432056498
H       -0.3504734350   -0.4987057501   -0.2866980866
H       -0.6776868790    1.2331968643   -0.4345338153
H        0.3323895783    0.6313927658    0.8969066747
H       -2.9283628471    1.5155860742    2.5636643935
H       -1.1970616689    1.8599151927    2.5419286387
H       -2.2187043479    2.3859034726    1.1855582181
H       -3.9118360314   -0.2049346043    0.9435632741
H       -3.2322871584    0.7224488978   -0.4104640936
H       -2.8753471382   -1.0029946720   -0.2534249873
21   
Generated by ForceBalance from scan.xyz: Frame 21 of 24
C       -1.5610208198   -1.8484740473    4.0295459252
C       -1.1501901812   -2.1025290780    1.8550903632
C       -1.1442819306   -2.7850999379    3.0604491729
C       -0.5840202216    0.3665607227    0.2269111823
C       -1.9714580788    1.5810247582    1.9314915679
C       -3.0747668768   -0.0695635658    0.3794729431
C       -1.7957785593    0.2634624801    1.1675056200
N       -1.8097796725   -0.6664155941    3.4600213750
N       -1.5496755242   -0.8320815397    2.1413613140
Br      -0.6629316198   -4.5978550510    3.3301698854
H       -1.6831880773   -1.9834082290    5.0963735624
H       -0.9018500875   -2.4356639968    0.8587051225
H       -0.4468015351   -0.5407590388   -0.3687068371
H       -0.7308892762    1.1974709026   -0.4691706619
H        0.3323440797    0.5479818868    0.7959147471
H       -2.8314201925    1.5427634143    2.6015992141
H       -1.0874233489    1.8111694289    2.5310424889
H       -2.1235851896    2.3854381514    1.2056242819
H       -3.9252546107   -0.1706527085    1.0598010292
H       -3.2954988169    0.7275730351   -0.3372999704
H       -2.9657205737   -1.0065750360   -0.1754656791
21   
Generated by ForceBalance from scan.xyz: Frame 22 of 24
C       -1.7367099122   -1.8091005532    4.0011610773
C       -0.9652360886   -1.9762573068    1.9178225079
C       -1.0699370601   -2.6751518325    3.1095317049
C       -0.6351125679    0.3621029145    0.1489147788
C       -1.9067503682    1.6509232190    1.8852694915
C       -3.1246037242   -0.0084271173    0.4232868249
C       -1.8036866121    0.3108478410    1.1444137063
N       -2.0274268653   -0.6533045249    3.3990389487
N       -1.5450487657   -0.7633647153    2.1378950353
Br      -0.4259411979   -4.4237048053    3.4537169666
H       -2.0047133978   -1.9749468793    5.0365420485
H       -0.5241989261   -2.2616365255    0.9753098671
H       -0.5714883525   -0.5422171384   -0.4636327081
H       -0.7807561385    1.2050216022   -0.5322204451
H        0.3171558054    0.5001356974    0.6692091830
H       -2.7278837596    1.6455948140    2.6026690459
H       -0.9827924722    1.8689396873    2.4282455068
H       -2.0790780330    2.4463888112    1.1541003389
H       -3.9461717710   -0.0599635489    1.1431389559
H       -3.3536472781    0.7695698818   -0.3118310995
H       -3.0624361743   -0.9683660541   -0.0989430707
21   
Generated by ForceBalance from scan.xyz: Frame 23 of 24
C       -1.9130941262   -1.9290670270    3.9211844776
C       -0.8129553207   -1.9265451335    1.9831153719
C       -1.0069593455   -2.6714735761    3.1357924257
C       -0.6963364100    0.2765222351    0.0951748595
C       -1.8113193236    1.6193626846    1.8996687840
C       -3.1822133932    0.0381604616    0.4804042376
C       -1.8161971607    0.2823518130    1.1432172688
N       -2.2569043919   -0.8010398210    3.2948696572
N       -1.5773913443   -0.8082211763    2.1228614342
Br      -0.1993149827   -4.3336543954    3.5548878354
H       -2.3151968581   -2.1631882459    4.8983709545
H       -0.1952580155   -2.1215025606    1.1206505262
H       -0.7107295429   -0.6291146906   -0.5190224744
H       -0.8364738781    1.1275353730   -0.5765372937
H        0.2883862617    0.3717262099    0.5626516840
H       -2.5877660457    1.6361462370    2.6655356916
H       -0.8452645400    1.7847582366    2.3863065203
H       -1.9906739298    2.4361460294    1.1939758102
H       -3.9723460137    0.0281999958    1.2354061730
H       -3.3990368955    0.8302315157   -0.2433276340
H       -3.1919883137   -0.9225631389   -0.0441417810
21   
Generated by ForceBalance from scan.xyz: Frame 24 of 24
C       -2.0726053146   -1.9734285276    3.8114400735
C       -0.6813861332   -1.7637782630    2.0827069384
C       -0.9403211813   -2.5471223364    3.1969347957
C       -0.7623940247    0.2544722286    0.0226651430
C       -1.7272079994    1.6465047127    1.8861695158
C       -3.2340851167    0.1658159619    0.4937825148
C       -1.8362355327    0.3219247168    1.1138889989
N       -2.4856736787   -0.9063947442    3.1231590869
N       -1.6332331441   -0.7903909912    2.0766556724
Br       0.0376845622   -4.0704604197    3.7571819894
H       -2.5914667869   -2.2881388633    4.7076296975
H        0.0916699667   -1.8462784972    1.3352828971
H       -0.8182124402   -0.6792765744   -0.5454527700
H       -0.9207169620    1.0789624490   -0.6773837929
H        0.2452735289    0.3593358321    0.4366850309
H       -2.4751372937    1.6872625550    2.6805245348
H       -0.7358354037    1.7487099003    2.3387234272
H       -1.8876278588    2.4887297711    1.2059635637
H       -4.0004743272    0.1858461104    1.2711771358
H       -3.4232421024    0.9824320286   -0.2099291356
H       -3.3130621222   -0.7833383318   -0.0456179150
