23   

C        5.7000040279    1.7602110908    0.0652226591
C        4.7727681285    2.0879640236   -0.9234350406
C        5.4856006894    0.6380480601    0.8651666691
C        3.6365486255    1.2927406435   -1.1114235844
C        4.3483118604   -0.1559179300    0.6749331442
C        3.3976863882    0.1482551491   -0.3220298855
C        1.3270255623   -0.6473560727   -1.5648455179
C        2.1983112263   -0.6870352723   -0.5130619146
C        0.1892131750   -1.5997403972   -1.3689844572
C        1.7411792988   -1.7138808513    0.5142638396
C        0.8295703308   -2.5754298473   -0.3729919975
H        6.5808484554    2.3748711184    0.2125597694
H        4.9310626010    2.9611689077   -1.5459938030
H        6.2016099473    0.3797358197    1.6370456230
H        2.9307852002    1.5781864902   -1.8808306006
H        4.2252210477   -1.0149433767    1.3201337143
H        1.4458910234   -0.0288864050   -2.4460907901
H       -0.1209081923   -2.0962873813   -2.2938259556
H       -0.6561098614   -1.0751765181   -0.9115323155
H        1.1673354642   -1.2168682210    1.3029590088
H        2.5466275813   -2.3177692987    0.9401961674
H        0.1018299384   -3.1675891133    0.1908369180
H        1.4692692391   -3.2584096297   -0.9424397463
23   

C        5.6766887041    1.7465984365    0.0665799421
C        4.6709808838    2.1522270825   -0.8120348990
C        5.5464499899    0.5399924806    0.7562733769
C        3.5390799002    1.3507647163   -0.9997260304
C        4.4132841088   -0.2600648507    0.5665035495
C        3.3879415249    0.1268787584   -0.3171525404
C        1.4071579268   -0.7590295464   -1.6285642985
C        2.1913202213   -0.7122278493   -0.5124870485
C        0.2402920320   -1.6766198202   -1.4355960612
C        1.6315449795   -1.6215807353    0.5725220574
C        0.7810503295   -2.5578781423   -0.2999661768
H        6.5544411128    2.3658299870    0.2132077219
H        4.7652631045    3.0897672632   -1.3479877611
H        6.3253040694    0.2204124918    1.4392220736
H        2.7649725786    1.6874531754   -1.6783269705
H        4.3485327100   -1.1933550493    1.1101167380
H        1.6157132875   -0.2263660099   -2.5489613356
H       -0.0032070103   -2.2577483686   -2.3306049824
H       -0.6296257197   -1.1015436518   -1.1016174689
H        1.0016022114   -1.0384021827    1.2517945029
H        2.3876804540   -2.1786474824    1.1316471145
H       -0.0007658042   -3.0847266892    0.2562322770
H        1.4530618931   -3.2993700971   -0.7454939084
23   

C        5.6713873911    1.7393838890    0.0768844930
C        4.6016246781    2.2067060872   -0.6903570302
C        5.6120876218    0.4647471787    0.6458425585
C        3.4763862531    1.3981967030   -0.8885834560
C        4.4852066675   -0.3415989342    0.4455145798
C        3.4032627972    0.1089207824   -0.3287415061
C        1.4996781573   -0.8735556850   -1.6799114129
C        2.2086362474   -0.7352390689   -0.5238182256
C        0.3045394592   -1.7528623366   -1.4790194697
C        1.5561086867   -1.5166423168    0.6072323220
C        0.7488555911   -2.5246001709   -0.2259551972
H        6.5438766935    2.3641032710    0.2314294633
H        4.6414001970    3.1965329747   -1.1305566966
H        6.4398137718    0.0987807588    1.2425589461
H        2.6478523900    1.7728015278   -1.4778267974
H        4.4580231692   -1.3292477405    0.8891618382
H        1.7819404913   -0.4277087334   -2.6267468805
H        0.1110437416   -2.4168452015   -2.3273691216
H       -0.5746449975   -1.1362653558   -1.2648268432
H        0.8933965828   -0.8566569447    1.1760435377
H        2.2678458298   -2.0142029284    1.2721776590
H       -0.0797730238   -2.9826096024    0.3233699517
H        1.4346827712   -3.3157509068   -0.5477947936
23   

C        5.6726519694    1.7300691177    0.0829606872
C        4.5442027727    2.2474947608   -0.5591749360
C        5.6769642790    0.4013058125    0.5167879722
C        3.4240556432    1.4345542003   -0.7686015091
C        4.5547445079   -0.4086393510    0.3051471890
C        3.4191384829    0.0935790363   -0.3472131755
C        1.5873641320   -0.9993638471   -1.7196673847
C        2.2247493325   -0.7562099141   -0.5408781989
C        0.3648663575   -1.8375405338   -1.5063029470
C        1.4884616942   -1.4034335867    0.6223556556
C        0.7137048800   -2.4807999758   -0.1533395773
H        6.5409872585    2.3582701888    0.2465130344
H        4.5346851173    3.2788822611   -0.8927437137
H        6.5489900749   -0.0025609215    1.0183629098
H        2.5478905686    1.8418761201   -1.2592788012
H        4.5644522616   -1.4373617745    0.6453918436
H        1.9361767122   -0.6503397415   -2.6848858548
H        0.2117982452   -2.5836159686   -2.2923857799
H       -0.5136747799   -1.1904455916   -1.4141518903
H        0.8067628118   -0.6779740771    1.0776167701
H        2.1545769267   -1.8352246640    1.3755143594
H       -0.1570134649   -2.8673581033    0.3857140535
H        1.4015716616   -3.3109237931   -0.3471253366
23   

C        5.6786810626    1.7211883559    0.0745162489
C        4.4947029141    2.2798189757   -0.4159896386
C        5.7375602481    0.3528944556    0.3556524268
C        3.3731114612    1.4688605389   -0.6258677611
C        4.6136024789   -0.4545407408    0.1436547564
C        3.4231676683    0.0917078029   -0.3552662704
C        1.6764440404   -1.1360912345   -1.7350642141
C        2.2263393877   -0.7610091579   -0.5477672208
C        0.4322626171   -1.9406555629   -1.5172723901
C        1.4050403639   -1.2720187919    0.6261761707
C        0.6766146380   -2.4280292328   -0.0784031845
H        6.5479968243    2.3478067546    0.2389210863
H        4.4436068536    3.3409774250   -0.6315075269
H        6.6526717017   -0.0832228181    0.7396933124
H        2.4539732198    1.9044743025   -0.9998460997
H        4.6608225411   -1.5140354805    0.3664950477
H        2.1005964770   -0.9014036381   -2.7047071178
H        0.3268324958   -2.7702286983   -2.2234209453
H       -0.4431103456   -1.2842848984   -1.5619864925
H        0.7003248572   -0.4992139378    0.9492061720
H        2.0164461276   -1.6168566462    1.4658749918
H       -0.2343422110   -2.7496902024    0.4362327132
H        1.3679406612   -3.2762239487   -0.1276870430
23   

C        5.6882159182    1.7088274959    0.0661810261
C        4.4587913643    2.3004169591   -0.2393963108
C        5.7850284426    0.3174739814    0.1655122057
C        3.3289180960    1.4996500358   -0.4439795983
C        4.6526506539   -0.4796638509   -0.0406414582
C        3.4149758020    0.1014554919   -0.3468766136
C        1.7771296513   -1.2719757031   -1.7288611401
C        2.2139742305   -0.7465139839   -0.5519983296
C        0.5176138238   -2.0564398213   -1.5272347284
C        1.2995216499   -1.1329829327    0.6001637133
C        0.6369837381   -2.3712018590   -0.0256485961
H        6.5640542729    2.3274097413    0.2263405339
H        4.3794686689    3.3787527324   -0.3169791079
H        6.7363351917   -0.1446850688    0.4032873202
H        2.3759573322    1.9590610995   -0.6789797892
H        4.7289410640   -1.5577902244    0.0387039701
H        2.2934122130   -1.1601435625   -2.6755129723
H        0.4725915325   -2.9632336323   -2.1384895170
H       -0.3497931387   -1.4173817704   -1.7230519799
H        0.5668831856   -0.3384855654    0.7737217751
H        1.8410236226   -1.3715092618    1.5209564829
H       -0.3146731658   -2.6417289131    0.4426717667
H        1.3312610249   -3.2113097793    0.0835372031
23   

C        5.6974964446    1.6997656215    0.0678970391
C        4.4409399577    2.3021643430   -0.0452180545
C        5.8121693164    0.3088708212   -0.0166976502
C        3.3015368006    1.5124576115   -0.2394701665
C        4.6702671902   -0.4774284224   -0.2115856419
C        3.4037715480    0.1132658971   -0.3173723764
C        1.8794542439   -1.3990619833   -1.6766119720
C        2.1991330858   -0.7226865353   -0.5393253872
C        0.6037193968   -2.1632799141   -1.5022776124
C        1.1828758464   -0.9847798282    0.5616839568
C        0.5829167122   -2.2967019722    0.0303520520
H        6.5809261189    2.3097708156    0.2190114278
H        4.3483041447    3.3804796974    0.0162051864
H        6.7851655030   -0.1614422118    0.0681263965
H        2.3288073616    1.9812219189   -0.3311432961
H        4.7618701561   -1.5551964389   -0.2786488820
H        2.4917022402   -1.4110395545   -2.5711524816
H        0.6128854309   -3.1364654816   -2.0030357671
H       -0.2394697471   -1.5585140502   -1.8521967075
H        0.4349061593   -0.1857350321    0.5724783862
H        1.6378414466   -1.1053822985    1.5498680207
H       -0.4080605391   -2.5208101041    0.4376513639
H        1.2647476991   -3.1095113057    0.3027058998
23   

C        5.6962327079    1.6879641010    0.0832879284
C        4.4270544724    2.2708860892    0.1408030725
C        5.8216203888    0.3187262844   -0.1691283480
C        3.2858875338    1.4831937795   -0.0508619532
C        4.6781502867   -0.4661202702   -0.3605632143
C        3.3980327187    0.1026655345   -0.2941189738
C        1.9617451969   -1.5216557330   -1.6081928480
C        2.1942385425   -0.7234049831   -0.5290747895
C        0.6626674322   -2.2520471798   -1.4648061867
C        1.0815261581   -0.8594184213    0.4997002853
C        0.5097504840   -2.2183640357    0.0652084652
H        6.5810677116    2.2967262419    0.2311648891
H        4.3258543226    3.3332849332    0.3310319483
H        6.8044847137   -0.1359097580   -0.2180370107
H        2.3041400132    1.9403614702   -0.0135773657
H        4.7809035989   -1.5265815177   -0.5585635892
H        2.6491010470   -1.6413065686   -2.4378490579
H        0.6978061218   -3.2738383877   -1.8555082287
H       -0.1370184480   -1.6820018863   -1.9492726748
H        0.3466364058   -0.0607924242    0.3576155356
H        1.4467034254   -0.8728040707    1.5314704399
H       -0.5155409238   -2.3910038944    0.4074306610
H        1.1539650603   -3.0002300433    0.4816898541
23   

C        5.6998642429    1.6832697708    0.0959291374
C        4.4271317954    2.2239246554    0.2976502967
C        5.8330821811    0.3509417811   -0.3044701895
C        3.2903226880    1.4312886120    0.1007393514
C        4.6942988535   -0.4394510235   -0.5007597045
C        3.4092259711    0.0860422064   -0.2939578817
C        2.0303974947   -1.6369332605   -1.5399147218
C        2.2093248496   -0.7377691223   -0.5305899238
C        0.7053151478   -2.3237812177   -1.4210439920
C        1.0170345369   -0.7455788117    0.4153739512
C        0.4445515328   -2.1319633478    0.0817971388
H        6.5811635830    2.2962713793    0.2473676284
H        4.3194025341    3.2582448818    0.6037537805
H        6.8187543197   -0.0711047086   -0.4639618059
H        2.3071776552    1.8613278621    0.2506039874
H        4.8084566293   -1.4714031128   -0.8105024227
H        2.7672513306   -1.8535607734   -2.3047150954
H        0.7411895030   -3.3804754300   -1.7039880659
H       -0.0422486595   -1.7905820710   -2.0177142767
H        0.3153245083    0.0458339227    0.1335465725
H        1.3009069795   -0.6568041865    1.4687825396
H       -0.6065254424   -2.2507051754    0.3633474804
H        1.0382029832   -2.8776958776    0.6216008560
23   

C        5.6957665378    1.6864314340    0.1002356845
C        4.4269911461    2.1640931670    0.4370853425
C        5.8339137612    0.4048955628   -0.4384821620
C        3.2988524127    1.3603006975    0.2353977367
C        4.7042806817   -0.3972691820   -0.6394915425
C        3.4209505649    0.0658961469   -0.3031922162
C        2.0803932013   -1.7493920548   -1.4652918707
C        2.2279696074   -0.7665864348   -0.5296377703
C        0.7308218547   -2.3906640624   -1.3693314151
C        0.9755226386   -0.6562886704    0.3280681760
C        0.3826399303   -2.0529660267    0.0884759228
H        6.5700282228    2.3085061906    0.2554382118
H        4.3151401258    3.1590580243    0.8526180277
H        6.8168949903    0.0306149747   -0.7007429216
H        2.3217757475    1.7500388114    0.4939964364
H        4.8304774558   -1.3902621590   -1.0529903340
H        2.8474259323   -2.0512712884   -2.1686097282
H        0.7531217856   -3.4698140244   -1.5507231975
H        0.0378651301   -1.8984515219   -2.0597647752
H        0.3183757396    0.1215126471   -0.0738068175
H        1.1898981028   -0.4765286132    1.3863272554
H       -0.6871875715   -2.1185325798    0.3105137386
H        0.9182954209   -2.7589581162    0.7323839259
23   

C        5.6947102595    1.6944869511    0.0996287933
C        4.4420016479    2.0987751447    0.5654490909
C        5.8244024512    0.4753480530   -0.5686758611
C        3.3210436618    1.2850893368    0.3627961628
C        4.7026071248   -0.3373340319   -0.7707952080
C        3.4325919138    0.0533148632   -0.3090337852
C        2.1246086022   -1.8513145558   -1.3733480091
C        2.2461631201   -0.7920407375   -0.5187855407
C        0.7528735695   -2.4478935687   -1.3107628029
C        0.9427880510   -0.5740788432    0.2370283480
C        0.3210448389   -1.9698221560    0.0825945610
H        6.5629337887    2.3246646834    0.2560639466
H        4.3365644768    3.0453532580    1.0831656934
H        6.7954047237    0.1569146647   -0.9304493868
H        2.3615434976    1.6294491199    0.7277218022
H        4.8315035992   -1.2808310067   -1.2853493899
H        2.9166706278   -2.2348103312   -2.0047712900
H        0.7540089159   -3.5393805905   -1.3922889816
H        0.1215462915   -2.0044921143   -2.0879109497
H        0.3394361696    0.1824514712   -0.2749113972
H        1.0873835554   -0.3116176211    1.2897346035
H       -0.7626259466   -1.9862946320    0.2359538373
H        0.7898097866   -2.6283934867    0.8218838463
23   

C        5.6966325871    1.7040460716    0.0909191896
C        4.4764698777    2.0273538122    0.6868258930
C        5.7967986949    0.5600860140   -0.7024796786
C        3.3582652788    1.2080694924    0.4905651557
C        4.6784587407   -0.2586393127   -0.8984138332
C        3.4395211056    0.0501590050   -0.3058373391
C        2.1688977856   -1.9405405364   -1.2601453942
C        2.2580617444   -0.8081433185   -0.4991277687
C        0.7812407306   -2.5016045012   -1.2473932200
C        0.9101780687   -0.4979625792    0.1382523226
C        0.2601897774   -1.8871802768    0.0578785623
H        6.5621828616    2.3389146556    0.2431765248
H        4.3939037503    2.9159592518    1.3022530965
H        6.7422755269    0.3049226941   -1.1673398231
H        2.4306475799    1.4995917483    0.9649254859
H        4.7885357861   -1.1392111333   -1.5174059011
H        2.9906268100   -2.3993086197   -1.7956771904
H        0.7592966861   -3.5957575055   -1.2278009334
H        0.2213518116   -2.1206792724   -2.1079128803
H        0.3672642963    0.2268512180   -0.4768344544
H        0.9769297731   -0.1591160882    1.1762647347
H       -0.8319634369   -1.8650190248    0.1275647720
H        0.6515389849   -2.4866162862    0.8870629607
23   

C        5.7164753117    1.7159928191    0.0826736494
C        4.5492212164    1.9500214003    0.8117170623
C        5.7607641667    0.6626704792   -0.8320885119
C        3.4279244986    1.1318844830    0.6278450680
C        4.6395812913   -0.1549100303   -1.0154468975
C        3.4543747442    0.0641956737   -0.2890751920
C        2.2240235544   -1.9976766835   -1.1291211085
C        2.2742189628   -0.7995502354   -0.4736592417
C        0.8304801187   -2.5419233312   -1.1694242304
C        0.8901452267   -0.4153842120    0.0318861634
C        0.2218101113   -1.7987879628    0.0266858021
H        6.5842538223    2.3499112536    0.2259456428
H        4.5108436842    2.7672188965    1.5229925137
H        6.6641599697    0.4782351995   -1.4021608021
H        2.5469704927    1.3496164776    1.2156750330
H        4.6994109119   -0.9602104117   -1.7361272004
H        3.0796865584   -2.5121322449   -1.5490579138
H        0.7888463438   -3.6287492070   -1.0463333269
H        0.3440995112   -2.2412929194   -2.1032530669
H        0.4087107621    0.2570174017   -0.6853690979
H        0.8763091712    0.0131645412    1.0372498531
H       -0.8718249882   -1.7570933549    0.0070815793
H        0.5349165738   -2.3223570458    0.9365122659
23   

C        5.7118976455    1.7121991188    0.0766811739
C        4.6054938049    1.8531696354    0.9172293699
C        5.6921554771    0.7545579246   -0.9395782463
C        3.4807989648    1.0381480536    0.7413303565
C        4.5669263846   -0.0595838411   -1.1139882583
C        3.4431219064    0.0702795317   -0.2797042664
C        2.2558960239   -2.0535591565   -0.9952803328
C        2.2651530760   -0.7983991961   -0.4587912149
C        0.8650233262   -2.6009494198   -1.0760824158
C        0.8517030630   -0.3605040485   -0.1013692837
C        0.1783751761   -1.7384701207   -0.0069847776
H        6.5830190994    2.3429594401    0.2134239756
H        4.6184488458    2.5928709677    1.7095941693
H        6.5484437233    0.6420617809   -1.5947339354
H        2.6448112841    1.1632981322    1.4166938290
H        4.5669122781   -0.7921816605   -1.9117030209
H        3.1419069438   -2.6003272657   -1.2958674096
H        0.8086455827   -3.6693711458   -0.8451189713
H        0.4462687380   -2.3988293212   -2.0674431047
H        0.4301375611    0.2264812614   -0.9236017184
H        0.7707173092    0.1855118450    0.8419769761
H       -0.9110120378   -1.7013394777   -0.1070756145
H        0.4251528845   -2.1631944009    0.9720988312
23   

C        5.7102573908    1.7097852768    0.0786289174
C        4.6683543816    1.7506770886    1.0088847238
C        5.6256653172    0.8521297160   -1.0213792970
C        3.5426793145    0.9364979462    0.8367961046
C        4.4989253941    0.0387577105   -1.1909843767
C        3.4396109017    0.0748100277   -0.2706976421
C        2.2809289104   -2.1018315816   -0.8545086565
C        2.2654581360   -0.8032193318   -0.4396165551
C        0.8917699966   -2.6474736320   -0.9747090253
C        0.8376129369   -0.3191486278   -0.2340058953
C        0.1431671141   -1.6772055290   -0.0466897679
H        6.5827103778    2.3395330891    0.2114448913
H        4.7329037799    2.4104372265    1.8666074577
H        6.4329893433    0.8159741350   -1.7438963087
H        2.7488589038    0.9691193464    1.5728864016
H        4.4422656203   -0.6220425701   -2.0477995501
H        3.1830127193   -2.6725606352   -1.0427756962
H        0.8071917064   -3.6868331292   -0.6421490263
H        0.5435358321   -2.5445858179   -2.0077515289
H        0.4843390219    0.1810869950   -1.1413525827
H        0.7095818133    0.3287861020    0.6378475493
H       -0.9363402985   -1.6452602557   -0.2250134199
H        0.3177814085   -2.0013018844    0.9849794675
23   

C        5.7080475416    1.7093104553    0.0828041428
C        4.7419108090    1.6383706343    1.0905448703
C        5.5476851790    0.9624673174   -1.0880244964
C        3.6157112069    0.8238209809    0.9242837420
C        4.4202852724    0.1484859736   -1.2510662114
C        3.4370423665    0.0768424907   -0.2538317657
C        2.2890256399   -2.1396113826   -0.7003018851
C        2.2632693699   -0.8078743272   -0.4153209700
C        0.9027048925   -2.6802911688   -0.8684982849
C        0.8345858116   -0.2877179694   -0.3678701500
C        0.1042845212   -1.6134470735   -0.1003264018
H        6.5809830758    2.3394869349    0.2102951297
H        4.8656469071    2.2114952048    2.0023231855
H        6.2969204351    1.0122179672   -1.8698688477
H        2.8743660501    0.7647152169    1.7123545360
H        4.3019285455   -0.4307723348   -2.1592567174
H        3.1949558179   -2.7309215317   -0.7695475265
H        0.7757433969   -3.6799750259   -0.4412947223
H        0.6330301179   -2.6786246057   -1.9297809828
H        0.5589167582    0.1246730010   -1.3436824412
H        0.6635198238    0.4461258704    0.4256497431
H       -0.9583379742   -1.5884588855   -0.3617873566
H        0.1961434318   -1.8344726516    0.9685711240
23   

C        5.7069289667    1.7081680956    0.0888760126
C        4.8291862858    1.5055782492    1.1580361883
C        5.4612524446    1.0878993010   -1.1398789458
C        3.7061961241    0.6858448357    0.9954004053
C        4.3372212458    0.2683408268   -1.2984547602
C        3.4445102499    0.0644123029   -0.2375125344
C        2.2777259568   -2.1741669855   -0.5293905414
C        2.2654146535   -0.8187333144   -0.4041561714
C        0.8937090050   -2.7039255248   -0.7451381996
C        0.8530743617   -0.2675306500   -0.5254935841
C        0.0687383043   -1.5404393668   -0.1680213096
H        6.5769800744    2.3430030977    0.2129138147
H        5.0182861234    1.9815800518    2.1134333762
H        6.1412376171    1.2405670548   -1.9701941619
H        3.0293937746    0.5258010458    1.8264957122
H        4.1504406738   -0.2133262316   -2.2511163299
H        3.1703036094   -2.7850116563   -0.4560370526
H        0.7062655169   -3.6454592806   -0.2194578762
H        0.7064482688   -2.8187646605   -1.8179080627
H        0.6621124433    0.0370325355   -1.5594068410
H        0.6478902279    0.5549316264    0.1668147330
H       -0.9699587053   -1.5259085308   -0.5130640419
H        0.0730875482   -1.6388113976    0.9229015307
23   

C        5.7076549614    1.7143763706    0.0998449712
C        4.9332281605    1.3507960008    1.2056500155
C        5.3667724549    1.2452108907   -1.1724371086
C        3.8195270993    0.5196815908    1.0366584415
C        4.2524011630    0.4136894876   -1.3367531989
C        3.4681396699    0.0426152271   -0.2364538470
C        2.2543581800   -2.1909835863   -0.3551128891
C        2.2821843361   -0.8317888254   -0.4169077549
C        0.8711598070   -2.7076317297   -0.6045377726
C        0.9008259448   -0.2623437947   -0.7007623089
C        0.0502638915   -1.4577798861   -0.2411739462
H        6.5699808894    2.3587582200    0.2285087002
H        5.1939934122    1.7125111143    2.1937189293
H        5.9644414693    1.5255285300   -2.0322791367
H        3.2189089773    0.2392798968    1.8940301194
H        3.9891362370    0.0520731747   -2.3238506443
H        3.1147822242   -2.8085090827   -0.1237220088
H        0.6138935263   -3.5685485955    0.0204250457
H        0.7556198218   -2.9542837699   -1.6651670612
H        0.7866320857   -0.0864628375   -1.7750667104
H        0.6825121407    0.6468423273   -0.1318153569
H       -0.9614895812   -1.4609765032   -0.6589080441
H       -0.0228624126   -1.4141755423    0.8508318956
23   

C        5.6952039797    1.7204547500    0.1125924801
C        5.0283489712    1.1930279459    1.2223411535
C        5.2568757218    1.4042074360   -1.1768126681
C        3.9263489223    0.3491941337    1.0401660595
C        4.1545989501    0.5593483493   -1.3541526793
C        3.4830149147    0.0170012399   -0.2500041438
C        2.2156160804   -2.1860270061   -0.1936367822
C        2.2960650298   -0.8501953583   -0.4424731742
C        0.8358372119   -2.6976550556   -0.4700878726
C        0.9529046346   -0.2895329777   -0.8851059800
C        0.0360891271   -1.3908396307   -0.3282700302
H        6.5481153131    2.3751555336    0.2515282564
H        5.3622246890    1.4391090311    2.2238828275
H        5.7687820816    1.8145042326   -2.0397867149
H        3.4059325771   -0.0532428917    1.9013626961
H        3.8141894394    0.3198664096   -2.3547198989
H        3.0328489805   -2.7845860479    0.1924128430
H        0.5096484675   -3.4625901355    0.2415367730
H        0.7818587840   -3.0781357338   -1.4955010519
H        0.9082700515   -0.2555165993   -1.9782181657
H        0.7318447471    0.6927076848   -0.4556837312
H       -0.9475808222   -1.4244529372   -0.8072417000
H       -0.1023858882   -1.2001113114    0.7414031110
23   

C        5.6866610448    1.7274125729    0.1228401385
C        5.1242538889    1.0570958271    1.2129133682
C        5.1474465159    1.5513404620   -1.1548353012
C        4.0265358129    0.2095543460    1.0225660558
C        4.0498157525    0.7024180102   -1.3411669631
C        3.4840031792    0.0134044768   -0.2588623392
C        2.1737955564   -2.1484942598   -0.0572688123
C        2.3008388837   -0.8513616009   -0.4529803963
C        0.8051895245   -2.6710302793   -0.3663795163
C        0.9990084558   -0.3301332469   -1.0435278310
C        0.0254192416   -1.3465281537   -0.4257404783
H        6.5362749529    2.3849379682    0.2684772345
H        5.5353864754    1.1958196462    2.2063114164
H        5.5775853897    2.0736476733   -2.0017660088
H        3.5867035954   -0.3003299511    1.8716160163
H        3.6327349559    0.5734244418   -2.3329510999
H        2.9484377532   -2.7092203885    0.4532263264
H        0.4179764247   -3.3457923716    0.4034992180
H        0.8102508322   -3.1647594920   -1.3437966500
H        1.0237989044   -0.4230812784   -2.1338473818
H        0.7707576914    0.6981537265   -0.7457978438
H       -0.9263700146   -1.4215214116   -0.9611019795
H       -0.1762494776   -1.0322731436    0.6040028102
23   

C        5.6791240619    1.7308084528    0.1299979314
C        5.2140489971    0.9462453207    1.1886838648
C        5.0406800279    1.6704298205   -1.1116519905
C        4.1142715815    0.1004074410    1.0029612280
C        3.9412293949    0.8231543463   -1.2942997151
C        3.4691876097    0.0196370864   -0.2447253227
C        2.1207454693   -2.1023964951    0.0732743974
C        2.2924859941   -0.8486042713   -0.4338548388
C        0.7717341905   -2.6464406706   -0.2815844354
C        1.0423499095   -0.3878491906   -1.1694172031
C        0.0143095538   -1.3308726774   -0.5251178377
H        6.5305298538    2.3867299301    0.2723722391
H        5.7025732510    0.9947588467    2.1551749843
H        5.3959731836    2.2807012408   -1.9341210927
H        3.7533687645   -0.4957215098    1.8325859490
H        3.4525116099    0.7852774754   -2.2605724072
H        2.8495122152   -2.6196726030    0.6865731695
H        0.3227264121   -3.2408437985    0.5203103160
H        0.8405762221   -3.2332557969   -1.2035697473
H        1.1451838618   -0.5933743067   -2.2396242495
H        0.8031051224    0.6662390404   -0.9967271255
H       -0.8983872815   -1.4532100099   -1.1168517352
H       -0.2548404887   -0.9148143205    0.4518072397
23   

C        5.7053892255    1.7361095338    0.0561662186
C        5.0121522467    1.7604497602   -1.1560066558
C        5.2388711678    0.9408605941    1.1052955693
C        3.8531983778    0.9920259600   -1.3164087780
C        4.0793389143    0.1735472073    0.9425378409
C        3.3636531262    0.1897129285   -0.2672796349
C        1.1060796049   -0.3840158036   -1.2742334485
C        2.1527460967   -0.6308468774   -0.4338707671
C        0.0716524004   -1.4625526922   -1.1820704952
C        1.9406126267   -1.9410672215    0.3108802689
C        0.9369047725   -2.6106624234   -0.6399226992
H        6.6031905992    2.3307466511    0.1816853604
H        5.3730966173    2.3727355211   -1.9745063873
H        5.7748366893    0.9177990837    2.0472837786
H        3.3341622183    1.0143162771   -2.2667159929
H        3.7316741884   -0.4342154508    1.7690959672
H        1.0415512945    0.4641908933   -1.9454584762
H       -0.3830472695   -1.7065188404   -2.1473151358
H       -0.6965281335   -1.1767848081   -0.4558555518
H        1.4836556533   -1.7435146114    1.2858074138
H        2.8569183121   -2.5294583191    0.4220964492
H        0.3580001190   -3.4128203189   -0.1713699698
H        1.5006435937   -3.0300591538   -1.4803288662
23   

C        5.7041758757    1.7435235694    0.0606056428
C        4.9430440816    1.8737049436   -1.1018906256
C        5.3132039617    0.8334917137    1.0438346491
C        3.7936892227    1.0947467247   -1.2794182368
C        4.1632556252    0.0556861141    0.8643858149
C        3.3793782981    0.1687438242   -0.3003233518
C        1.1697806700   -0.4687914176   -1.3866713062
C        2.1709597129   -0.6530664534   -0.4754842674
C        0.1026816021   -1.5088867358   -1.2416236188
C        1.8821376580   -1.8757538466    0.3841812108
C        0.9060430119   -2.6149164173   -0.5429369218
H        6.5945049567    2.3463963448    0.1993764598
H        5.2429775961    2.5781405000   -1.8693077864
H        5.8999774832    0.7298259535    1.9494337186
H        3.2258675075    1.2109176934   -2.1936032954
H        3.8822738046   -0.6349086599    1.6496144894
H        1.1487772901    0.3117067482   -2.1373734929
H       -0.3097899711   -1.8390400244   -2.2001918865
H       -0.6926398292   -1.1334926579   -0.5891758457
H        1.3862580177   -1.5687362558    1.3106195786
H        2.7703796815   -2.4785408721    0.5978612795
H        0.2820790441   -3.3504930488   -0.0255089808
H        1.4969758379   -3.1318751645   -1.3068406001
23   

C        5.6942940781    1.7499713541    0.0641458112
C        4.8542906027    1.9846063311   -1.0241078315
C        5.3886118366    0.7274360279    0.9619915477
C        3.7135819957    1.1960431672   -1.2138379133
C        4.2471289896   -0.0599003780    0.7702995141
C        3.3840991549    0.1506362763   -0.3256557798
C        1.2336871238   -0.5614678395   -1.4899334549
C        2.1803592564   -0.6780998488   -0.5108310367
C        0.1310736915   -1.5570690584   -1.3065559717
C        1.8152727150   -1.8086268234    0.4413892663
C        0.8611418571   -2.6071632163   -0.4592346428
H        6.5781477094    2.3600061716    0.2126662060
H        5.0848189914    2.7796088315   -1.7240736135
H        6.0354461618    0.5430831914    1.8121711408
H        3.0827378897    1.4058819536   -2.0675624483
H        4.0439014442   -0.8353317626    1.4970274581
H        1.2700727823    0.1423776854   -2.3120551827
H       -0.2374117873   -1.9702473271   -2.2507705466
H       -0.6876967940   -1.1005331101   -0.7406488980
H        1.2888401205   -1.4043418012    1.3119321848
H        2.6674689457   -2.4219047473    0.7488387938
H        0.1882577969   -3.2700946426    0.0938464288
H        1.4719903276   -3.2143113240   -1.1361079323
