19   

C        5.6932772798    1.6990736356    0.7935229151
C        4.4442747767    1.8920241275    0.2900666277
C        5.3732873779    0.0755162514   -0.6115990430
C        4.9166906812   -1.4365495204   -2.4760919078
C        4.0966735959   -0.4280632769   -3.2747157443
C        6.6450787541   -2.0267172947   -0.8312934449
N        6.2428210473    0.5563394641    0.2389850277
N        4.2237584081    0.8636253252   -0.6134492144
N        5.6143152192   -1.1089326371   -1.3224836136
O        4.9361914834   -2.5756203117   -2.9329356719
H        6.1784193594    2.3388104080    1.5216238934
H        3.7666037586    2.6903879264    0.5699169345
H        3.9493881300   -0.7737997873   -4.3016890523
H        4.5022833149    0.5838571406   -3.2003391157
H        3.0979252464   -0.3905176074   -2.8344161306
H        6.3421509184   -2.3835053887    0.1582722095
H        7.5566676961   -1.4797470021   -0.5704657189
H        6.8445282288   -2.8758057114   -1.4926125663
H        3.3803502914    0.6736291212   -1.1416132462
19   

C        5.5840390513    1.8673844425    0.8674290684
C        4.3114200328    1.9506078246    0.3921932284
C        5.3624324283    0.1998571563   -0.5022440921
C        4.8780776198   -1.4233730131   -2.2495734966
C        4.0634817412   -0.4794998342   -3.1279052594
C        6.7439690642   -1.8383048106   -0.7034111195
N        6.2123595920    0.7646257423    0.3152760392
N        4.1524562266    0.8917623503   -0.4890134566
N        5.6782826483   -0.9723307117   -1.2065249782
O        4.7801427372   -2.6183592180   -2.5110049425
H        6.0329410085    2.5555781903    1.5744006455
H        3.5784375859    2.6974526720    0.6750153135
H        3.9995172549   -0.8815677786   -4.1427462528
H        4.4106844264    0.5557150544   -3.0838363558
H        3.0248839187   -0.5261669480   -2.7924537304
H        6.3872526632   -2.2958615459    0.2250276905
H        7.6029773375   -1.2596603490   -0.3495157482
H        7.0120622114   -2.6433213372   -1.3952122139
H        3.3157177317    0.6263267986   -0.9954880351
19   

C        5.5880754927    1.8986896686    0.8615898906
C        4.2963183277    1.9088596123    0.4314625834
C        5.4151098978    0.2256854549   -0.5053914305
C        4.8711577468   -1.4411266316   -2.1636188214
C        4.0916275615   -0.5355128504   -3.1103189153
C        6.8454348206   -1.7758578555   -0.7223722169
N        6.2609526464    0.8369400910    0.2817073169
N        4.1675642300    0.8449688869   -0.4487449021
N        5.7751718560   -0.9236080095   -1.2311708678
O        4.6331686674   -2.6415839076   -2.2340100888
H        6.0204441156    2.6096068913    1.5563132212
H        3.5314629465    2.6109926419    0.7429919496
H        4.1290003074   -0.9674672668   -4.1139723130
H        4.4181738989    0.5072942214   -3.0878841781
H        3.0262237044   -0.6391311705   -2.8911385031
H        6.4916176754   -2.2314658114    0.2083605489
H        7.7055348786   -1.1887176175   -0.3854388528
H        7.1027890864   -2.5886440910   -1.4091048142
H        3.3306945839    0.5322329974   -0.9279498090
19   

C        5.5870946750    1.8282882576    0.8926599322
C        4.2797888734    1.8748154171    0.5136308878
C        5.3471178713    0.2494919533   -0.5699617350
C        4.6429329038   -1.3052398148   -2.2444158041
C        3.9663563862   -0.3481848682   -3.2174821779
C        6.6817376661   -1.7900105412   -0.9227506813
N        6.2291421248    0.8025020292    0.2199902270
N        4.1079319704    0.8717825314   -0.4286285708
N        5.6677691131   -0.8520849436   -1.3887237520
O        4.1975095308   -2.4435198834   -2.1805191631
H        6.0512172965    2.4897102672    1.6152146561
H        3.5332735472    2.5593939148    0.8997064402
H        4.0941956641   -0.7582069165   -4.2226800295
H        4.3523802754    0.6732041850   -3.1648780842
H        2.8812998347   -0.4239775532   -3.1121548308
H        6.3178817866   -2.2430021799    0.0056007210
H        7.5904678059   -1.2710435832   -0.6017487254
H        6.8619209723   -2.5997243561   -1.6369559509
H        3.2508497450    0.5941215905   -0.8942375005
19   

C        5.6169283443    1.8367727654    0.8638768266
C        4.2928394783    1.8413249816    0.5437618141
C        5.3603596102    0.2449684055   -0.5795970216
C        4.5605545391   -1.3186584418   -2.1670368232
C        3.9586259539   -0.4345812821   -3.2497171443
C        6.6709147579   -1.7996702529   -0.9348506024
N        6.2605134846    0.8281344453    0.1667327753
N        4.1097885148    0.8295711510   -0.3870791136
N        5.6770593074   -0.8496166292   -1.4150290401
O        3.9705948559   -2.3516530787   -1.8858742668
H        6.0918067621    2.5155164699    1.5629789338
H        3.5431087054    2.5030088473    0.9620472679
H        4.2594573464   -0.8658787074   -4.2078668816
H        4.3367586658    0.5907503810   -3.2212652249
H        2.8707930898   -0.5366830617   -3.2766620292
H        6.3059061300   -2.2251382749    0.0061651059
H        7.5984491917   -1.2950080281   -0.6463082669
H        6.8198463813   -2.6290415804   -1.6332753205
H        3.2417707684    0.5186914032   -0.8105809065
19   

C        5.3806210651    1.5835998868    0.9276681381
C        4.0299340963    1.5967088609    0.7379685927
C        4.9345603535   -0.1842832973   -0.2290727010
C        4.0964539167   -1.4620856498   -2.0321278832
C        4.5362328619   -1.1923652335   -3.4620609564
C        6.3987346126   -1.8956114841   -1.1566188217
N        5.9274262199    0.4622929162    0.3233421467
N        3.7275783856    0.4660306524   -0.0070000835
N        5.0462206217   -1.3963375084   -0.9376130915
O        2.9913703967   -1.9307127146   -1.8440063064
H        5.9416767327    2.3343990942    1.4724202931
H        3.3419476380    2.3434153902    1.1174057350
H        5.1751264639   -2.0190767787   -3.7806170969
H        5.2096465256   -0.3318274742   -3.4952017071
H        3.6829485124   -1.1331773833   -4.1429746168
H        6.9322541312   -1.9997655899   -0.2059921816
H        6.9723805417   -1.1381015836   -1.7015938636
H        6.4050849661   -2.8128141524   -1.7535992954
H        2.8226125194    0.1142278624   -0.3125486270
19   

C        5.4550881422    1.6995036870    1.1007641675
C        4.1059314843    1.7455161748    0.9055064205
C        4.9817401502   -0.0178923634   -0.1203545616
C        4.0961799830   -1.3096867484   -1.9090743072
C        4.4989502322   -1.3978240500   -3.3733599227
C        6.4276696997   -1.7191963710   -1.1087750750
N        5.9839980310    0.5901965306    0.4590556606
N        3.7874324687    0.6477049803    0.1195429882
N        5.0813666212   -1.2066627918   -0.8747583365
O        2.9405227524   -1.5771159500   -1.6213254392
H        6.0275944215    2.4195140193    1.6743836026
H        3.4296305062    2.4916457387    1.3062264720
H        4.9660413091   -2.3714315585   -3.5376698862
H        5.3008387480   -0.6883709311   -3.5934025670
H        3.6306259476   -1.3241872510   -4.0336102265
H        6.9817511176   -1.8047176421   -0.1680066420
H        6.9924011154   -0.9711812121   -1.6756312591
H        6.4255662494   -2.6450790447   -1.6917063941
H        2.8808415694    0.3194774523   -0.2093527253
19   

C        5.4762395453    1.6634945089    1.2578080508
C        4.1333588973    1.7512227877    1.0371698541
C        4.9988616880    0.0445760554   -0.0923241671
C        4.1121311346   -1.2190488885   -1.9218711512
C        4.4692412712   -1.5534402140   -3.3632904811
C        6.4534869743   -1.6113396481   -1.1599799290
N        5.9985341701    0.5914418380    0.5504374243
N        3.8139292815    0.7177032419    0.1691999148
N        5.1095229229   -1.0878165116   -0.9286517277
O        2.9308420519   -1.3103564484   -1.6040316861
H        6.0491907237    2.3294598643    1.8929508543
H        3.4617003262    2.4818753414    1.4724986098
H        4.7755995729   -2.6015654806   -3.3967780189
H        5.3597651238   -1.0064342769   -3.6830617172
H        3.6050005392   -1.4444884480   -4.0240487079
H        6.9995132371   -1.7209962840   -0.2169679740
H        7.0309792271   -0.8497497810   -1.6949583846
H        6.4581838587   -2.5199459494   -1.7690059660
H        2.9123283686    0.4290214358   -0.2088972658
19   

C        5.4768833393    1.5961619504    1.3806318437
C        4.1395220237    1.7181900317    1.1460974143
C        5.0035037291    0.0884007536   -0.0974115213
C        4.1268874998   -1.1481314393   -1.9718924009
C        4.4380811307   -1.6599999900   -3.3722245339
C        6.4770265030   -1.5041356195   -1.2420987864
N        5.9979241461    0.5744104751    0.6014888745
N        3.8242153639    0.7573347036    0.1973891460
N        5.1323807022   -0.9753308119   -1.0157764821
O        2.9373507385   -1.0866521317   -1.6585741076
H        6.0472096533    2.2044451949    2.0733694910
H        3.4689290928    2.4237355966    1.6223910361
H        4.6958019720   -2.7187030394   -3.2914037532
H        5.3493082991   -1.2008599221   -3.7637044406
H        3.5697700962   -1.5767911598   -4.0314231249
H        7.0151574494   -1.6339035361   -0.2970771117
H        7.0637274286   -0.7294918261   -1.7473680995
H        6.4945897042   -2.3968260752   -1.8734012123
H        2.9287564008    0.5100643982   -0.2234085979
19   

C        5.4666568798    1.5451772389    1.4634973897
C        4.1306709704    1.6814262011    1.2318208604
C        5.0025798761    0.1387882149   -0.1175211257
C        4.1332255639   -1.0898058520   -2.0166086406
C        4.3993651685   -1.7502285064   -3.3638652874
C        6.5008451947   -1.3796601793   -1.3313142588
N        5.9923728269    0.5802813040    0.6179376533
N        3.8224088841    0.7865080197    0.2188559917
N        5.1519447675   -0.8567666889   -1.1037988212
O        2.9480130095   -0.8983332830   -1.7273491415
H        6.0332437508    2.1052926043    2.1986247692
H        3.4567877915    2.3540413780    1.7492370342
H        4.6681564501   -2.7934135108   -3.1808623256
H        5.3001733090   -1.3390511828   -3.8262718089
H        3.5157254780   -1.7247634023   -4.0073139028
H        7.0350752014   -1.5262299100   -0.3865344270
H        7.0895019639   -0.5882949050   -1.8073515692
H        6.5367337436   -2.2568967401   -1.9824225522
H        2.9318342858    0.5705355992   -0.2292733773
19   

C        5.4583999420    1.5145505910    1.5655732583
C        4.1221679598    1.6536220724    1.3392364988
C        5.0128609120    0.2138161471   -0.1109250720
C        4.1515105607   -0.9993405249   -2.0336739426
C        4.3819785413   -1.7848310045   -3.3196569335
C        6.5366498038   -1.2206283231   -1.3932946839
N        5.9957327636    0.6161391799    0.6565452535
N        3.8263452912    0.8266677849    0.2667899400
N        5.1822652391   -0.7089122115   -1.1610748494
O        2.9780470428   -0.6921054229   -1.7921698050
H        6.0175922352    2.0279839421    2.3394306402
H        3.4405034748    2.2853518744    1.8964147369
H        4.6897707081   -2.7985748862   -3.0519244654
H        5.2581647504   -1.4016127738   -3.8485418822
H        3.4814585592   -1.8242241782   -3.9385820351
H        7.0711185279   -1.3815711853   -0.4510335039
H        7.1217958909   -0.4133856774   -1.8460906413
H        6.5904637222   -2.0829470314   -2.0620443022
H        2.9414514023    0.6392050307   -0.2051382808
19   

C        5.4752871177    1.2645204294    1.7897986733
C        4.1454600922    1.4152086055    1.5378963005
C        5.0971971470    0.1444168325   -0.0302803070
C        4.2625541102   -0.9875234416   -2.0191965860
C        4.4823915925   -1.8646424810   -3.2477384503
C        6.6528724554   -1.1580563898   -1.4341764906
N        6.0497462403    0.4731552155    0.8073449492
N        3.8927713300    0.7026472142    0.3762266066
N        5.2977519809   -0.6613313039   -1.1682437690
O        3.1025830129   -0.5960474729   -1.8377541648
H        6.0050879962    1.6972365203    2.6307713606
H        3.4402187992    1.9810970267    2.1350166888
H        5.0188439477   -2.7741712887   -2.9676302005
H        5.1994883818   -1.3721385883   -3.9088085723
H        3.5461501347   -2.0731955891   -3.7726688688
H        7.4204497603   -0.7790250528   -0.7524275813
H        6.9268424953   -0.9853982866   -2.4789883865
H        6.6416358774   -2.2517026490   -1.3981834078
H        3.0257628238    0.5633132751   -0.1433825751
19   

C        5.3546167817    1.1771350837    1.8175174795
C        4.0209560460    1.3247911269    1.5816196589
C        4.9862431872    0.1951018818   -0.0800861869
C        4.1543070336   -0.9131748721   -2.0775427053
C        4.3421612009   -1.9011663455   -3.2231491036
C        6.5748888557   -0.9714768739   -1.5421658246
N        5.9389082684    0.4739209732    0.7752596214
N        3.7736952654    0.6982105224    0.3701029528
N        5.2061978404   -0.5191733798   -1.2733950754
O        3.0174366820   -0.4424698669   -1.9521385410
H        5.8802957148    1.5527556559    2.6879979113
H        3.3100928627    1.8350050966    2.2208008478
H        4.9351867866   -2.7579486279   -2.8937106241
H        4.9884560217   -1.4384869917   -3.9730285477
H        3.3885085810   -2.1805194762   -3.6792909526
H        7.3113251170   -0.2236203842   -1.2294141980
H        6.7459081627   -1.3325900942   -2.5590304335
H        6.7919550661   -1.7958265395   -0.8548402849
H        2.9084413465    0.5912867280   -0.1597991258
19   

C        5.3372457205    1.0753281155    1.8018466486
C        4.0036651606    1.2194595429    1.5612312563
C        5.0021074956    0.2158470596   -0.1582102332
C        4.1709624511   -0.8656190422   -2.1609692745
C        4.3414750095   -1.9600547806   -3.2075118320
C        6.6046468706   -0.8585525549   -1.6750580882
N        5.9431187487    0.4519742707    0.7216977334
N        3.7769182449    0.6701709530    0.3086845926
N        5.2372883385   -0.4140378111   -1.3967054875
O        3.0677007869   -0.3118116205   -2.1254978946
H        5.8481686793    1.3999589780    2.7011435634
H        3.2799999326    1.6798429371    2.2235045488
H        4.9638681841   -2.7715675464   -2.8222541762
H        4.9412756012   -1.5539770272   -4.0256229251
H        3.3788066448   -2.2877958725   -3.6091948820
H        7.3391692984   -0.1174368276   -1.3423129364
H        6.7671891847   -1.1880764015   -2.7045080950
H        6.8202302682   -1.7067848806   -1.0167194205
H        2.9196605132    0.5951127242   -0.2390954044
19   

C        5.3150380965    0.9817412147    1.8228499200
C        3.9836151524    1.1273773182    1.5688603870
C        5.0216269830    0.2491359760   -0.1919560992
C        4.1908817053   -0.8063693267   -2.1929669566
C        4.3483840205   -2.0072114943   -3.1165139206
C        6.6375839880   -0.7312807686   -1.7558736522
N        5.9466470487    0.4376614783    0.7148819796
N        3.7825387371    0.6583939280    0.2795567528
N        5.2720326134   -0.2919774950   -1.4709403050
O        3.1267624859   -0.1904223802   -2.2653429500
H        5.8068548697    1.2523779905    2.7502325305
H        3.2450088343    1.5391337539    2.2465499358
H        4.9823041867   -2.7717806596   -2.6604646350
H        4.9199332745   -1.6842888781   -3.9899327653
H        3.3794997251   -2.3725322163   -3.4675582511
H        7.3703329860    0.0046272318   -1.4080088678
H        6.7911506138   -1.0331315232   -2.7956106234
H        6.8516835495   -1.5996216102   -1.1236289829
H        2.9353206358    0.6186174945   -0.2867541239
19   

C        5.2695686407    0.8513629366    1.8372567671
C        3.9460760054    1.0214697750    1.5559362556
C        5.0321349936    0.2690784028   -0.2306364137
C        4.2096191696   -0.7350090991   -2.2420359946
C        4.3492539945   -2.0413724675   -3.0107704492
C        6.6650697530   -0.6170392549   -1.8262642302
N        5.9322862110    0.3869920209    0.7113673836
N        3.7795863476    0.6486161780    0.2304802648
N        5.3026255423   -0.1718376363   -1.5445324477
O        3.1997644851   -0.0703575430   -2.4500358144
H        5.7346794317    1.0517856635    2.7957409538
H        3.1904514788    1.3888928741    2.2404226441
H        4.9533422617   -2.7615114914   -2.4531169793
H        4.9384244444   -1.8390536137   -3.9082658507
H        3.3761931955   -2.4179201713   -3.3374935802
H        7.3986203597    0.1088487085   -1.4596167764
H        6.8161561163   -0.8906337140   -2.8745128601
H        6.8685063672   -1.5050729246   -1.2182083106
H        2.9477992533    0.6617379307   -0.3587002246
19   

C        5.2034586684    0.6960346514    1.7954618023
C        3.8914503195    0.9011105080    1.4839498121
C        5.0275299842    0.2598372261   -0.3124920045
C        4.2258887271   -0.7005713289   -2.3340042161
C        4.3333158947   -2.1166671898   -2.8792226900
C        6.6847427833   -0.5342072850   -1.9204809553
N        5.8982924408    0.3023731543    0.6621748829
N        3.7630519022    0.6220835445    0.1311670380
N        5.3228605458   -0.0853243407   -1.6489074038
O        3.2847938943   -0.0186872719   -2.7070836215
H        5.6386940804    0.8249344026    2.7799276260
H        3.1187381839    1.2319924318    2.1681298873
H        4.8241582248   -2.7700408122   -2.1533124641
H        5.0282016770   -2.1031081129   -3.7218519022
H        3.3686373678   -2.4814370574   -3.2420974663
H        7.4166688603    0.1802026538   -1.5289862382
H        6.8414037899   -0.7745595479   -2.9763023477
H        6.8744004428   -1.4443319999   -1.3412813686
H        2.9486071595    0.6917794569   -0.4768148839
19   

C        5.1706002843    0.5528123184    1.7597320490
C        3.8687491056    0.7941161192    1.4318951156
C        5.0420929564    0.2670736475   -0.3766954571
C        4.2682730954   -0.6372355837   -2.4185950805
C        4.2999979888   -2.1340548293   -2.6819193835
C        6.7241639252   -0.4222327473   -1.9982277911
N        5.8890236019    0.2318274946    0.6185295277
N        3.7695767131    0.6120792722    0.0600816537
N        5.3609683067    0.0182893626   -1.7258755264
O        3.4186085757    0.0309625802   -2.9735878693
H        5.5826200876    0.6078395835    2.7609583546
H        3.0837503583    1.0866611983    2.1196922541
H        4.6720730726   -2.6665895559   -1.8026749031
H        5.0677713883   -2.3276116290   -3.4343854917
H        3.3432986862   -2.4964832197   -3.0674226076
H        7.4501557993    0.2926139174   -1.5968443579
H        6.8798976117   -0.6402129117   -3.0593205824
H        6.9184636434   -1.3420419769   -1.4360151679
H        2.9677688493    0.7387069210   -0.5540469349
19   

C        4.9372967033    2.1303590478   -0.1062314840
C        4.7528436148    1.4230954086    1.0426409514
C        5.1177616214    0.0444428457   -0.6672679184
C        5.7124102520   -0.9309080220   -2.7453680323
C        4.7848508048   -0.2762322354   -3.7589640401
C        5.8039196442   -2.3112575563   -0.6872207054
N        5.1448346825    1.2561611643   -1.1588647803
N        4.8697055895    0.0831824479    0.7013873040
N        5.2667211792   -1.1554139043   -1.3916762686
O        6.8553095542   -1.1594481910   -3.0880408056
H        4.9193407140    3.2113498692   -0.1856869408
H        4.5488964435    1.8461643912    2.0194528503
H        4.5422015121   -1.0276137936   -4.5134532354
H        5.3380200532    0.4612061103   -4.3456248237
H        3.8637682559    0.1006475382   -3.3077004726
H        5.2358270268   -2.5355159374    0.2200376331
H        6.8075691787   -2.0545040919   -0.3301018448
H        5.9172682230   -3.1737618746   -1.3521426029
H        4.7722844882   -0.7280820409    1.3003247504
19   

C        4.8843859930    2.1400511738   -0.0517270186
C        4.7207923786    1.4589327397    1.1152565971
C        5.0646169944    0.0412093625   -0.5683748920
C        5.4870645023   -1.0393651131   -2.6408472350
C        4.5372503387   -0.2745084654   -3.5541857944
C        5.8080693884   -2.3129457667   -0.5410029803
N        5.0796210339    1.2420926421   -1.0865319076
N        4.8411434477    0.1123771954    0.8029280152
N        5.2177708303   -1.1844291132   -1.2487409941
O        6.5081482645   -1.4759734609   -3.1421967057
H        4.8613769002    3.2188557522   -0.1553853373
H        4.5278909744    1.9036607758    2.0846457862
H        4.4242426299   -0.8119326393   -4.4985700554
H        5.0523306356    0.6314538561   -3.8837049328
H        3.5930108397   -0.0203127009   -3.0662074981
H        5.3549115586   -2.4693137521    0.4417997619
H        6.8528731809   -2.0616091669   -0.3270151996
H        5.8343890598   -3.2139345939   -1.1627032934
H        4.7566002409   -0.6854885660    1.4214916443
19   

C        4.8505762179    2.1885757562   -0.0863224111
C        4.6919479439    1.5179614113    1.0868778747
C        5.1004929354    0.0890558059   -0.5739627735
C        5.4538992916   -1.0894995590   -2.6320257115
C        4.5419327607   -0.2484224456   -3.5188508877
C        5.8967873564   -2.2593888189   -0.5023780590
N        5.0876417929    1.2834607743   -1.1060767878
N        4.8595474452    0.1722959614    0.7937000487
N        5.3086192285   -1.1404011529   -1.2294830948
O        6.3332242986   -1.7188285557   -3.2004674808
H        4.7965188324    3.2647780985   -0.2041903148
H        4.4711014131    1.9688101843    2.0474172116
H        4.4058642326   -0.7270726852   -4.4915462378
H        5.0884914256    0.6636319154   -3.7721340314
H        3.6173943220    0.0422270734   -3.0138648759
H        5.5324179487   -2.3389986026    0.5253132032
H        6.9690664675   -2.0564575266   -0.4053323631
H        5.8376718778   -3.1925756704   -1.0722445326
H        4.7917880273   -0.6197311658    1.4217189225
19   

C        4.8598345061    2.0590581617   -0.1108309786
C        4.7266796464    1.4055484392    1.0744945143
C        5.1283740703   -0.0457872463   -0.5702605719
C        5.3302715215   -1.3329061938   -2.6057715207
C        4.4722819863   -0.4167790143   -3.4736706258
C        5.9154038957   -2.4055354620   -0.4669865109
N        5.0933551154    1.1403836573   -1.1191275819
N        4.9088385961    0.0580321488    0.7997399824
N        5.3461698136   -1.2820781450   -1.2054229724
O        6.0058386497   -2.1538158968   -3.2121138834
H        4.7908055894    3.1325119454   -0.2445215608
H        4.5124258157    1.8688066258    2.0305617307
H        4.2721283181   -0.8696439202   -4.4477579617
H        5.0688352002    0.4717852829   -3.6954428438
H        3.5879161859   -0.0561539453   -2.9427098377
H        5.7254021583   -2.3708386389    0.6088829630
H        7.0028470163   -2.3533095955   -0.5897493751
H        5.6675854764   -3.3627879245   -0.9373584388
H        4.8597433831   -0.7246226182    1.4410048845
19   

C        4.8018278187    2.0699153943   -0.0965172155
C        4.7283719286    1.4069075007    1.0880888685
C        5.1710860945   -0.0173801888   -0.5715104615
C        5.2698651203   -1.3650628407   -2.5941668755
C        4.4540063729   -0.4031344574   -3.4541085342
C        6.0243753695   -2.3555876845   -0.4790734205
N        5.0615508608    1.1675138123   -1.1129090678
N        4.9771590179    0.0722458644    0.8036104051
N        5.4409230143   -1.2360574258   -1.2158979676
O        5.7508643486   -2.3138429164   -3.2026253482
H        4.6738165338    3.1386655050   -0.2238549413
H        4.5084109828    1.8553068615    2.0498539644
H        4.2192480854   -0.8341156215   -4.4305047584
H        5.0658898121    0.4850777650   -3.6303307975
H        3.5865101982   -0.0204632619   -2.9111096493
H        5.9664383429   -2.2615769026    0.6083044539
H        7.0848114240   -2.4031948590   -0.7496470061
H        5.6635999946   -3.3157033488   -0.8625647827
H        4.9818776868   -0.7137836166    1.4424337163
19   

C        4.7752961903    2.0765455960   -0.0608759040
C        4.8547250148    1.4145683444    1.1232498796
C        5.3129645443    0.0337188568   -0.5690199481
C        5.3049960859   -1.3859416833   -2.5538607175
C        4.4885947121   -0.4226726737   -3.4122835065
C        6.3139384076   -2.2267870328   -0.4736198642
N        5.0466869437    1.1996951699   -1.0960807358
N        5.2152144000    0.1104407108    0.8172534610
N        5.6548370591   -1.1583545674   -1.2258278946
O        5.6045619103   -2.4281778991   -3.1261852755
H        4.5342782723    3.1271109149   -0.1741028024
H        4.6600446343    1.8439404819    2.0988775478
H        4.2211095838   -0.8597392589   -4.3775862164
H        5.0763525846    0.4852402296   -3.5684092496
H        3.6234358372   -0.0549472107   -2.8556165648
H        5.6698263613   -2.5361688117    0.3546110389
H        7.1685580221   -1.8140885556    0.0724504683
H        6.5944942934   -3.0970275429   -1.0759116442
H        5.3449470107   -0.6680375386    1.4516995061
