60

C      6.42132   -1.84794   -3.48966
C      7.60538    0.49430   -6.12679
C      6.57955    1.44628   -6.13336
C      7.52602   -0.59247   -5.25951
C      5.48207    1.30420   -5.28331
C      3.73857    1.20275   -2.78054
C      3.49732   -1.12034   -3.38477
C      2.64402    1.09480   -1.92412
C      2.40847   -1.22806   -2.52423
C      1.99588   -2.00891    0.44371
C     -0.37129   -3.19497    1.25676
C      6.42137   -0.73415   -4.39989
C      4.19118    0.09360   -3.51589
C      5.37068    0.21541   -4.40420
C      1.96830   -0.12558   -1.77414
C      0.77236   -1.44987    0.02692
C     -0.42673   -2.05662    0.44828
C      2.04475   -3.14258    1.24747
C      0.84418   -3.75343    1.65825
C      0.80238   -0.25025   -0.84533
C     -1.81638    2.19053   -0.52050
C     -1.74448   -1.41946    0.11067
C     -1.85303    0.01971    0.65586
C     -1.38266    0.17253    2.10528
C     -1.80295    4.22662   -1.87503
C      3.71458   -4.76540    0.86950
C      1.36871   -4.78705    3.73362
N      6.46000   -2.76152   -2.76667
N     -0.02116    0.74937   -0.93662
N     -1.16032    0.96290   -0.24279
N     -1.16984    3.00876   -1.39698
O     -2.88033    2.47331    0.03301
O      3.26882   -3.63973    1.64670
O      0.82980   -4.90839    2.40417
H      8.45949    0.60001   -6.78936
H      6.63025    2.29584   -6.80913
H      8.31792   -1.33452   -5.22798
H      4.67859    2.03437   -5.31431
H      4.27617    2.14513   -2.84762
H      3.80303   -1.98509   -3.96526
H      2.32243    1.95082   -1.33806
H      1.89178   -2.17905   -2.43432
H      2.94039   -1.56578    0.14675
H     -1.28657   -3.67257    1.59665
H     -1.90623   -1.39370   -0.97315
H     -2.55937   -2.00682    0.54282
H     -2.89826    0.32573    0.60669
H     -0.31031   -0.01227    2.20676
H     -1.91155   -0.53933    2.74890
H     -1.60079    1.18432    2.45665
H     -2.51987    4.03373   -2.68370
H     -1.03130    4.90961   -2.24002
H     -2.33824    4.70074   -1.05103
H      4.67112   -5.07249    1.29636
H      3.86052   -4.47338   -0.17713
H      2.99645   -5.59038    0.93139
H      1.26802   -5.77407    4.18872
H      0.78817   -4.05681    4.31039
H      2.41987   -4.48889    3.70941
H     -0.38112    2.60620   -1.88684
