43

C      3.45250   -3.12697    0.45008
C      4.18437   -2.08117   -0.11264
C      4.82385   -4.64831   -0.81811
C      3.78151   -4.43134    0.08767
C      5.21172   -2.38551   -1.01347
C      5.67992    1.47366    0.35366
C      4.76960    0.81712   -1.59807
C      2.38549    1.68233   -0.07470
C      5.85406    2.32342    1.56910
C      4.50755    2.95099    1.97512
C      3.82347    3.60983    0.76684
C      0.11150    0.93566   -0.47870
C     -1.06638    1.44193   -1.30096
C      1.18143    2.47362   -2.12104
C      3.56281    2.62809   -0.39393
C      6.04929   -1.32054   -1.70476
N      5.52307   -3.64495   -1.35546
N      6.34958    0.40669    0.02437
N      4.74464    1.80728   -0.61023
N      5.81846    0.01699   -1.20698
N      1.24549    1.81630   -0.80132
O      4.00233    0.70990   -2.55552
O      2.48857    0.86666    0.84866
S     -0.34159    1.85225   -2.93191
Cl     2.90572   -5.79576    0.75616
H      2.64862   -2.92820    1.15234
H      3.94172   -1.06040    0.15989
H      5.09691   -5.65981   -1.11244
H      6.27832    1.71436    2.37041
H      6.57884    3.11694    1.34434
H      3.85427    2.18120    2.39115
H      4.67627    3.70526    2.75006
H      2.87108    4.06089    1.06205
H      4.45691    4.41882    0.38355
H     -0.08166    0.98068    0.59562
H      0.35969   -0.09888   -0.73952
H     -1.82907    0.67310   -1.43719
H     -1.52325    2.32674   -0.84844
H      1.13151    3.56108   -2.00816
H      2.03576    2.18738   -2.73808
H      3.37410    3.19230   -1.30713
H      7.10844   -1.55927   -1.59029
H      5.81533   -1.31927   -2.77251
