53

C     -1.44806    0.67987   -5.58781
C      0.95453    3.05761    1.82619
C      0.98597    2.41499    0.56619
C      0.37856    2.47037    2.95725
C     -0.10720    0.54275    1.54607
C      0.44425    1.13943    0.41165
C     -0.70721   -0.74509    1.66541
C     -0.15993    1.18856    2.79953
C     -1.12646   -0.87186    2.97062
C     -0.64370   -1.65493    0.47577
C     -0.00129    1.30629   -2.07907
C     -0.31357   -0.84236   -3.32364
C      0.35587    0.36348   -0.89752
C     -0.78949    0.59745   -3.19214
C     -0.69464   -0.77074   -0.78753
C      0.90245   -5.07718   -3.01989
C     -2.74954   -4.13461    3.37809
C     -0.65543    1.33755   -4.54118
C     -1.79306   -2.00240    3.69146
C      0.15128   -3.75796   -3.24572
C      0.23260   -2.88339   -1.99473
N     -2.07824    0.07793   -6.35714
N     -0.79636    0.30035    3.65618
N     -0.64337   -1.64515   -2.07588
O     -2.12243   -3.01408    2.75635
H      1.38792    4.04937    1.91558
H      1.43453    2.93930   -0.27342
H      0.35873    2.99764    3.90687
H      0.29889   -2.21153    0.50980
H     -1.46131   -2.38044    0.47717
H     -0.58886    2.14806   -1.70442
H      0.92256    1.72529   -2.49088
H     -0.77541   -1.35490   -4.16727
H      0.77128   -0.87904   -3.44763
H      1.33087   -0.10425   -1.09417
H     -1.85693    0.58758   -2.94282
H     -1.68689   -0.31251   -0.81950
H      1.95954   -4.89987   -2.79736
H      0.47114   -5.64726   -2.19104
H      0.85108   -5.69891   -3.91674
H     -2.96429   -4.85805    2.58971
H     -3.68944   -3.84231    3.86565
H     -2.08740   -4.59670    4.12288
H      0.39130    1.37568   -4.86251
H     -0.99455    2.37171   -4.42754
H     -1.12207   -2.40377    4.46988
H     -2.70150   -1.64185    4.20313
H     -0.90062   -3.97016   -3.47849
H      0.57471   -3.24495   -4.11319
H     -0.10544   -3.45236   -1.13094
H      1.25086   -2.53675   -1.80413
H     -1.01098    0.47842    4.62830
H     -1.59960   -1.99127   -2.19822
