37

C     -0.75762    1.43605   -2.21489
C     -1.30783    0.15658   -0.64005
C      0.01894    2.64326    1.27306
C      0.65092    1.36697    1.83184
C      0.95221    2.70815    2.44156
C      3.54553   -3.13143   -1.30900
C      1.98619   -3.32965    0.64220
C      4.00593   -1.82617    0.77404
C      1.68689    0.58803    1.04963
C      1.04716   -0.46584    0.13150
C      2.03650   -1.23480   -0.78825
C      2.88902   -2.36116   -0.14244
N     -1.84849    0.94095   -1.56756
N      0.41073    1.00964   -1.74008
N      0.03877    0.17646   -0.72628
O      2.91390   -0.33322   -1.45257
Cl     2.56082    3.43644    2.22667
Cl     0.26022    3.05359    4.04893
H     -0.81628    2.11941   -3.05216
H     -1.84299   -0.42894    0.09639
H      0.39755    3.00639    0.32293
H     -1.03362    2.83106    1.45709
H     -0.00656    0.75746    2.44889
H      4.18804   -2.47266   -1.89764
H      2.78864   -3.55627   -1.97865
H      4.15348   -3.95682   -0.92363
H      1.58223   -2.87636    1.55413
H      1.14530   -3.68336    0.03309
H      2.56046   -4.20930    0.95075
H      3.62254   -1.46590    1.73261
H      4.55253   -1.01271    0.29128
H      4.71533   -2.63010    0.99794
H      2.35451    0.08354    1.74983
H      2.30644    1.25434    0.44840
H      0.48408   -1.18773    0.72822
H      1.39300   -1.73600   -1.52915
H      2.35163    0.31638   -1.91861
