29   

C        1.1801071246   -1.0565885457    0.1876114984
C        1.5220988062   -2.2063093095    0.9022634356
C        1.0369998368    0.1601799773    0.8585728687
C        1.7111509670   -2.1387022988    2.2869307003
C        1.2224489325    0.2239820240    2.2448962749
C        2.0137166074   -0.0188859848    6.3844566938
C        2.9729457082   -1.0614140772    6.1441988340
C        1.5448116664   -0.9298064789    2.9878387620
C        1.2015942392    0.0118984549    5.2870464126
C       -0.0428085619    0.8342774760    5.2069153462
C       -2.1808122388    1.5583604182    4.2178098742
C       -1.4038812291   -0.7790654472    3.8759906571
N        2.7575027251   -1.5906657373    4.9680316223
N        1.7321341875   -0.8968843487    4.3879068174
N       -1.1083341918    0.5760614936    4.3345016248
O       -0.1681579353    1.7764317741    5.9949470229
H        1.0357404467   -1.1072564028   -0.8860006676
H        1.6446272773   -3.1519525303    0.3856509199
H        0.7881289045    1.0583119254    0.3041626326
H        1.9819318465   -3.0360092401    2.8331258644
H        1.1274683922    1.1833581029    2.7397578805
H        1.9038300538    0.5663745878    7.2902978053
H        3.7357383757   -1.3843483767    6.8432589047
H       -2.7784693433    1.3664894414    3.3210466909
H       -1.7670411886    2.5683659622    4.1301470808
H       -2.8322328363    1.5148323354    5.0965968022
H       -2.4636752305   -1.0045410855    4.0321369477
H       -0.8393012038   -1.5266832325    4.4414210565
H       -1.1830520755   -0.8864934128    2.8099075687
29   

C        1.1762002378   -1.0233020508    0.1711744892
C        1.5319865678   -2.1707533048    0.8825200368
C        1.0226196258    0.1902240930    0.8451625168
C        1.7229594616   -2.1044314182    2.2670796945
C        1.2107506233    0.2528706846    2.2309842859
C        1.9397148728   -0.0561416404    6.4055183331
C        2.9055992339   -1.0936485629    6.1676018392
C        1.5450099246   -0.8992310902    2.9719234230
C        1.1649125257    0.0005662406    5.2839304068
C       -0.0354678080    0.8745839356    5.1241344206
C       -2.1727846801    1.5419423419    4.0841015486
C       -1.4172444782   -0.8275487102    3.9305952287
N        2.7336177156   -1.5838455171    4.9670805487
N        1.7287160745   -0.8712500517    4.3734629259
N       -1.1195452658    0.5552540851    4.2963163705
O       -0.0809562703    1.9386467130    5.7490483772
H        1.0294749989   -1.0728078173   -0.9021560137
H        1.6629787587   -3.1138493056    0.3633964282
H        0.7638248710    1.0873684407    0.2936760029
H        2.0028348494   -3.0008960808    2.8099879707
H        1.1101786031    1.2122401839    2.7246105934
H        1.8113056760    0.5195901182    7.3147675716
H        3.6440530017   -1.4383833050    6.8822124389
H       -2.7723065546    1.2770713947    3.2074067793
H       -1.7415773338    2.5318514960    3.9025039516
H       -2.8266713671    1.5922441137    4.9606201604
H       -2.4796664179   -1.0376420626    4.0901694549
H       -0.8607797648   -1.5364492248    4.5515470127
H       -1.1825553349   -1.0089083635    2.8774074844
29   

C        1.1575198820   -0.9975259541    0.1837273400
C        1.5159175430   -2.1380598288    0.9046105532
C        1.0177676606    0.2242449494    0.8450440953
C        1.7217352013   -2.0568042625    2.2863939997
C        1.2217770609    0.3021585973    2.2275966038
C        1.9167472034   -0.0285028447    6.4336172363
C        2.8730180688   -1.0772019455    6.2033382513
C        1.5567450170   -0.8429852106    2.9799757417
C        1.1735022961    0.0527941478    5.2934849039
C        0.0269390464    0.9823926843    5.0549213552
C       -2.1169429747    1.6022280296    3.9841845392
C       -1.4200131552   -0.7929615698    4.0641916761
N        2.7295123749   -1.5407695002    4.9881568386
N        1.7509629454   -0.8029417044    4.3808963546
N       -1.0958030213    0.6111008605    4.3045561222
O        0.0913661450    2.1411820182    5.4759504359
H        0.9984725389   -1.0584012476   -0.8872387677
H        1.6368605316   -3.0875750149    0.3949218344
H        0.7580213449    1.1166960057    0.2863947699
H        2.0021629042   -2.9490110828    2.8358803772
H        1.1352775145    1.2704406081    2.7061648816
H        1.7838834086    0.5470105253    7.3420650015
H        3.5869656709   -1.4454494247    6.9310016063
H       -2.6852893445    1.2890532526    3.1027098077
H       -1.6617372035    2.5707095389    3.7529661097
H       -2.8043801790    1.7229563327    4.8273766588
H       -2.4887236600   -0.9655946657    4.2265000116
H       -0.8854857447   -1.4529067528    4.7547852859
H       -1.1734693495   -1.0746046214    3.0359272272
29   

C        1.1827972099   -1.0262131550    0.1574332267
C        1.5398574850   -2.1773982945    0.8615641486
C        1.0673293747    0.1900916725    0.8327407745
C        1.7672137853   -2.1123145926    2.2409342592
C        1.2937382008    0.2521588082    2.2124385830
C        1.9435294802   -0.2224803429    6.4472251088
C        2.8905129462   -1.2746896624    6.1936858565
C        1.6260139948   -0.9040910637    2.9499688133
C        1.2447127771   -0.0707515946    5.2871170736
C        0.1549721515    0.9173344362    5.0037230148
C       -2.0073861146    1.5314943621    3.9484006896
C       -1.3784565088   -0.8737315468    4.1955837398
N        2.7849935472   -1.6682788810    4.9499522272
N        1.8384089579   -0.8837426295    4.3497872294
N       -1.0178748782    0.5340773499    4.3420787750
O        0.3357994361    2.1149169581    5.2399922055
H        1.0064454177   -1.0743416314   -0.9114470440
H        1.6426206343   -3.1229123418    0.3406559342
H        0.8098410693    1.0913550576    0.2873293699
H        2.0451665932   -3.0137721869    2.7762754095
H        1.2295351145    1.2193763933    2.6964957199
H        1.7982010017    0.3163876244    7.3757405767
H        3.5735456200   -1.6928302485    6.9240610019
H       -2.5193457445    1.2121451560    3.0352470820
H       -1.5380745464    2.4972549214    3.7357131412
H       -2.7464953086    1.6644422162    4.7446134285
H       -2.4540208781   -1.0059981160    4.3501202539
H       -0.8723960876   -1.4976260226    4.9392533370
H       -1.1214718937   -1.2323661349    3.1940683432
29   

C        1.2121531632   -1.0434471738    0.1175775186
C        1.5971286901   -2.1805846429    0.8292540910
C        1.0688169758    0.1740409783    0.7848055103
C        1.8245915611   -2.1004082483    2.2078242940
C        1.2953814592    0.2512907861    2.1636926098
C        1.8272665871   -0.3202558212    6.4480812721
C        2.8071461327   -1.3424933807    6.1971330238
C        1.6566377058   -0.8909592678    2.9100257749
C        1.2135677790   -0.1039027503    5.2510641705
C        0.1515225683    0.9037023445    4.9194406818
C       -2.0770936440    1.4564279143    3.9547217001
C       -1.4277614413   -0.9285987150    4.3521738460
N        2.7926659701   -1.6611574674    4.9276757970
N        1.8712832429   -0.8589279695    4.3103314219
N       -1.0691926039    0.4870718902    4.3769792874
O        0.4045305853    2.1100874189    4.9669861610
H        1.0360079393   -1.1028851828   -0.9507384897
H        1.7214925807   -3.1270425464    0.3148825145
H        0.7905513487    1.0656406608    0.2337509596
H        2.1237032116   -2.9924894068    2.7473041433
H        1.2127960303    1.2228091904    2.6352323973
H        1.6168993631    0.1646211078    7.3935427419
H        3.4492679213   -1.7926684897    6.9453663474
H       -2.1226889374    1.4950901703    2.8621348286
H       -1.8615384376    2.4620872528    4.3287532616
H       -3.0604654171    1.1744194211    4.3439315752
H       -2.5091338784   -1.0526817327    4.4667301884
H       -0.9563419305   -1.4745894274    5.1756893659
H       -1.1225506746   -1.3802854848    3.4029994130
29   

C        1.3420848154   -1.0981730060    0.0226616986
C        1.7230889065   -2.2150460316    0.7668587705
C        1.1711810127    0.1309521778    0.6607973899
C        1.9201628964   -2.1024359030    2.1477410553
C        1.3671106375    0.2404494560    2.0424025339
C        1.6386424956   -0.4364336689    6.3866590548
C        2.6470303549   -1.4371794672    6.1689074055
C        1.7268047454   -0.8795305614    2.8219415424
C        1.1899171973   -0.1014393362    5.1446022832
C        0.1405804474    0.9081074520    4.7721946150
C       -2.1941601869    1.4537591300    4.1222181173
C       -1.5389830511   -0.9128021419    4.6424488983
N        2.7741646134   -1.6589857151    4.8852972362
N        1.9169162870   -0.8176668693    4.2259872598
N       -1.1662513819    0.4920168804    4.5086233628
O        0.4462165882    2.0917545157    4.6070035900
H        1.1903493316   -1.1821228118   -1.0477226795
H        1.8682005457   -3.1710896101    0.2762486863
H        0.8963698866    1.0078448489    0.0849777434
H        2.2162590354   -2.9815973384    2.7094188125
H        1.2681362023    1.2227942836    2.4841309523
H        1.3099033994   -0.0378114186    7.3385157781
H        3.2084587715   -1.9414594013    6.9469376872
H       -2.3126163700    1.4588513067    3.0343286045
H       -1.9413619818    2.4661323762    4.4532143076
H       -3.1515583033    1.1947435076    4.5849638446
H       -2.6124061813   -1.0103108514    4.8320487659
H       -1.0211824119   -1.3833507820    5.4841355549
H       -1.2952060047   -1.4557060232    3.7235044023
29   

C        1.6199358974   -1.0619880702   -0.1297879495
C        1.8663571212   -2.2045298597    0.6311394239
C        1.4886643799    0.1738643624    0.5047329302
C        1.9663279584   -2.1095433930    2.0234805635
C        1.5907065685    0.2655342529    1.8981581214
C        1.3441259450   -0.6577161158    6.2388282995
C        2.3648453211   -1.6511269303    6.0661670423
C        1.8097071440   -0.8776489074    2.6933694673
C        1.1108955451   -0.1518180714    4.9932783361
C        0.0592284850    0.8472490384    4.6035484399
C       -2.3067812043    1.5734639625    4.5283072133
C       -1.7362502722   -0.7832038884    5.1530398347
N        2.6629487001   -1.7501916000    4.7973238247
N        1.9070760131   -0.8366558515    4.1082084460
N       -1.2920859992    0.5678704128    4.8234285130
O        0.3782588206    1.9764862922    4.2209970149
H        1.5426292747   -1.1320277226   -1.2090608477
H        1.9822818888   -3.1669626059    0.1452775634
H        1.3190820344    1.0697920268   -0.0821763727
H        2.1587135157   -3.0102450673    2.5958462076
H        1.5374541977    1.2508077260    2.3376318237
H        0.8655968927   -0.3719053781    7.1673570606
H        2.8123371392   -2.2375989329    6.8602379681
H       -2.5491879798    1.5618420734    3.4609143831
H       -1.9588272640    2.5740326487    4.8046331330
H       -3.2176586678    1.3740420956    5.1014045942
H       -1.8828148297   -0.8831976809    6.2326352713
H       -1.0166565797   -1.5374200116    4.8189650124
H       -2.6798510852   -1.0045645060    4.6442350289
29   

C        1.7941733811   -1.0658000219   -0.2409819649
C        1.9336754669   -2.2199047448    0.5298258166
C        1.7051446484    0.1771095096    0.3879116306
C        1.9673293289   -2.1282219429    1.9254647539
C        1.7440459209    0.2649042226    1.7850048478
C        1.2264303377   -0.7680111072    6.1069340778
C        2.3014132817   -1.7045064634    5.9555453363
C        1.8503669347   -0.8879844778    2.5871063275
C        1.0225179113   -0.2308855503    4.8669839108
C       -0.0455616581    0.7431753639    4.4728855156
C       -2.3568910260    1.6090917513    4.6695933203
C       -1.8264916720   -0.7176151580    5.4152461631
N        2.6634063217   -1.7466925105    4.7015185184
N        1.8956230142   -0.8500845275    4.0033158437
N       -1.3590941979    0.5753888127    4.9244622290
O        0.2399787320    1.8000665705    3.9018810902
H        1.7681056387   -1.1329435105   -1.3228447642
H        2.0192191839   -3.1881868508    0.0493772757
H        1.6189252625    1.0806741154   -0.2052461259
H        2.0801898718   -3.0356736200    2.5082221682
H        1.7345546386    1.2507389996    2.2276860403
H        0.7011221073   -0.5311880469    7.0237637843
H        2.7407010988   -2.2928573665    6.7527906210
H       -2.7287848631    1.5293638079    3.6431376656
H       -1.9318709569    2.6068107412    4.8196364183
H       -3.1987246890    1.5043905978    5.3611924621
H       -1.8153376146   -0.7380345489    6.5090836929
H       -1.2084636098   -1.5369026140    5.0337796779
H       -2.8470857372   -0.9076250142    5.0678459797
29   

C        1.9182163539   -1.1794217180   -0.2484561153
C        3.0389343110   -1.5136359608    0.5133034086
C        0.7160078938   -0.8700343642    0.3895076785
C        2.9554842284   -1.5348311548    1.9103460503
C        0.6371659691   -0.8857741815    1.7870360812
C        0.9971458610   -1.1258932822    6.0752894769
C        1.9806128863   -2.1654653643    5.9366715100
C        1.7603843441   -1.2068509321    2.5790821701
C        0.9058705891   -0.5408580848    4.8435311090
C        0.1120838850    0.6510356256    4.4087066115
C       -1.8358594575    2.1625185281    4.6354908459
C       -1.9242513944   -0.1394892033    5.6066042767
N        2.4008288148   -2.2077853907    4.6996502423
N        1.7121578722   -1.2573757605    3.9944477526
N       -1.1563394325    0.9075973973    4.9407030235
O        0.6328949512    1.5145926555    3.7006846186
H        1.9802831602   -1.1630850285   -1.3307410798
H        3.9756194848   -1.7561886843    0.0243137167
H       -0.1600587375   -0.6197539447   -0.1980484545
H        3.8329128332   -1.7972448207    2.4909166422
H       -0.3183856592   -0.6648435524    2.2432515816
H        0.5046462125   -0.8274928806    6.9918983932
H        2.3391330640   -2.8012065055    6.7379520654
H       -2.3218429330    2.1007836755    3.6566656377
H       -1.1289533951    2.9986000609    4.6312617169
H       -2.5931497551    2.3795174231    5.3953876039
H       -1.8021639431   -0.0715315726    6.6918309963
H       -1.6156604609   -1.1342776284    5.2691519461
H       -2.9875019274   -0.0414294666    5.3650074720
29   

C        1.9998471034   -1.2635444710   -0.2686641844
C        3.1246555227   -1.4838777855    0.5281882563
C        0.7572286440   -1.0523926752    0.3318008807
C        3.0044931220   -1.4900142485    1.9226501021
C        0.6419519768   -1.0519093360    1.7270377170
C        0.8838720799   -1.2040700249    6.0184662886
C        1.9127136281   -2.2019625653    5.9100576343
C        1.7669692676   -1.2578766204    2.5522836721
C        0.8075588372   -0.6158368565    4.7854583254
C        0.0318693726    0.5782836466    4.3326258500
C       -1.7910879599    2.2291163383    4.6090958888
C       -1.9406009926    0.0167881640    5.7558487743
N        2.3841695471   -2.2133691688    4.6918619991
N        1.6818332730   -1.2894420980    3.9657088271
N       -1.1645518923    0.9567758038    4.9543687913
O        0.4936794417    1.3300982378    3.4714707121
H        2.0905531439   -1.2584226963   -1.3489904387
H        4.0925644390   -1.6490296347    0.0686895522
H       -0.1208042767   -0.8892016177   -0.2826595210
H        3.8839645481   -1.6637900306    2.5325698435
H       -0.3372313751   -0.9026269249    2.1630123933
H        0.3660403942   -0.9274023720    6.9272579169
H        2.2672699903   -2.8284452742    6.7203514200
H       -2.3546188382    2.1325233158    3.6757618766
H       -1.0374565375    3.0148022943    4.4921837789
H       -2.4721662204    2.5466659629    5.4049621070
H       -1.7171059582    0.1446078841    6.8193245474
H       -1.7369647911   -1.0176454824    5.4608691721
H       -3.0117777373    0.1815159836    5.6010220033
29   

C        2.2183109332   -1.5419679938   -0.1623451225
C        3.3227476448   -1.6129693297    0.6888126678
C        0.9346009778   -1.4335023366    0.3767843775
C        3.1408957238   -1.5724305718    2.0759293145
C        0.7574363935   -1.3858564066    1.7648607921
C        0.8089338353   -1.3461056198    6.0595273528
C        1.8853136054   -2.2968939439    6.0171495946
C        1.8593101811   -1.4396787176    2.6422236324
C        0.7604808170   -0.7808675991    4.8125864785
C        0.0067297344    0.4053014798    4.3073603893
C       -1.7053733053    2.1763074660    4.5312739635
C       -1.8961166091    0.1031221803    5.9031507275
N        2.4213458473   -2.2976922513    4.8269571637
N        1.7132889139   -1.4207112316    4.0503966737
N       -1.1239896477    0.9090977983    4.9649257956
O        0.3959766508    1.0184575997    3.3103786921
H        2.3568877007   -1.5723251672   -1.2371239204
H        4.3220959209   -1.6978865554    0.2773309502
H        0.0732327204   -1.3849371472   -0.2794466029
H        4.0036825666   -1.6307141152    2.7299556605
H       -0.2474890170   -1.3121787535    2.1608256803
H        0.2538437005   -1.0787422698    6.9479977244
H        2.2270996908   -2.8955095438    6.8535854569
H       -2.3123721148    2.0269459466    3.6328048874
H       -0.9200132388    2.9081568711    4.3151151684
H       -2.3354826702    2.5979756564    5.3207889604
H       -1.5725081385    0.2952121479    6.9306367876
H       -1.8004794942   -0.9638057902    5.6774833080
H       -2.9609529006    0.3445559245    5.8231489197
29   

C        2.7207358365   -1.0012757004   -0.1036581379
C        2.7119119666    0.0240503665    0.8450118124
C        2.2389179096   -2.2662032693    0.2393039277
C        2.2116327283   -0.2135810310    2.1311231169
C        1.7464423675   -2.5011393712    1.5280665393
C        0.5917361217   -1.5354742821    5.8928853824
C        1.3380912336   -2.7479942133    5.7059288905
C        1.7035410681   -1.4770248102    2.4919104872
C        0.5018802141   -0.9512793892    4.6548423656
C       -0.3477061885    0.1682939285    4.1472933270
C       -2.0201784777    1.9709015402    4.4119332662
C       -0.7825212308    1.1527225689    6.4125632853
N        1.6634171334   -2.8714056547    4.4490922801
N        1.2167671990   -1.7581934030    3.7907118083
N       -1.0780683795    1.0172708878    4.9924581747
O       -0.4298266536    0.3979882272    2.9376911475
H        3.1011193094   -0.8164943279   -1.1018420021
H        3.0901158990    1.0062156483    0.5859299825
H        2.2439735760   -3.0670158726   -0.4913639302
H        2.2165606269    0.5904277779    2.8566671682
H        1.3775080260   -3.4865455246    1.7893442401
H        0.1200545511   -1.2533611292    6.8228855305
H        1.5623909190   -3.4724774883    6.4802837611
H       -2.7404456757    2.3060279619    5.1649915967
H       -2.5905063676    1.5047368724    3.6015484482
H       -1.4850936337    2.8408241904    4.0183945309
H        0.2875789836    1.0211230205    6.6019944071
H       -1.3607553066    0.4297251620    6.9959949548
H       -1.0380189639    2.1590433422    6.7598755417
29   

C        2.7197965474   -0.9640229900   -0.0629293071
C        2.5385078836    0.0722264047    0.8555472776
C        2.3889964868   -2.2722432570    0.2954099347
C        2.0176533853   -0.1988756413    2.1266064284
C        1.8754102138   -2.5401846727    1.5694877230
C        0.4610256036   -1.6119185095    5.8705639113
C        1.2644489568   -2.7930524747    5.7161039000
C        1.6618373039   -1.5095780645    2.5038764901
C        0.3790611164   -1.0498206716    4.6238956977
C       -0.4803542886    0.0571704468    4.1083579227
C       -2.0558224862    1.9385138846    4.4168576332
C       -0.5895206906    1.2416515146    6.3093590944
N        1.6370305865   -2.9086146837    4.4704550221
N        1.1583423117   -1.8218538512    3.7898414179
N       -1.0796670584    0.9971855806    4.9580297752
O       -0.7360489795    0.1454218243    2.9048340872
H        3.1170234076   -0.7540429431   -1.0495378426
H        2.8001736838    1.0886947823    0.5848353747
H        2.5277288768   -3.0816951820   -0.4122378219
H        1.8958304684    0.6185026689    2.8259822413
H        1.6235917564   -3.5593092687    1.8406364973
H       -0.0516893671   -1.3267645201    6.7787394692
H        1.4958511297   -3.5018537322    6.5027668238
H       -2.6644525605    2.3633876535    5.2213651359
H       -2.7370954841    1.4329886296    3.7244430136
H       -1.5465600187    2.7507822367    3.8887561338
H        0.4753058311    1.0012757783    6.3916520958
H       -1.1593316870    0.6547036586    7.0361087158
H       -0.6903976394    2.3018406533    6.5631016770
29   

C        2.7153693771   -0.8466740694    0.0125029425
C        2.4064586605    0.1790852686    0.9078342585
C        2.5099063935   -2.1759815394    0.3859247185
C        1.8837953917   -0.1241233961    2.1707061735
C        1.9940406191   -2.4758472277    1.6520120720
C        0.3662772059   -1.6431039341    5.8963657227
C        1.2295583325   -2.7848916549    5.7653593454
C        1.6542645961   -1.4588975394    2.5642370948
C        0.3014002958   -1.0834634010    4.6494969952
C       -0.5526318550    0.0291167103    4.1342942633
C       -2.0065411512    2.0022963123    4.4776592462
C       -0.3938283000    1.3282525056    6.2599189070
N        1.6595877815   -2.8690577974    4.5347332176
N        1.1515583578   -1.8024286367    3.8430418466
N       -1.0259283128    1.0430159030    4.9764510839
O       -0.9594893640    0.0132212175    2.9705622574
H        3.1149289321   -0.6120576341   -0.9676327807
H        2.5720642664    1.2126275620    0.6258725378
H        2.7480470216   -2.9775375633   -0.3040450771
H        1.6704398337    0.6914847859    2.8492437756
H        1.8398373682   -3.5116747142    1.9329960159
H       -0.1858339575   -1.3677252850    6.7851532886
H        1.4644634647   -3.4880750490    6.5560042842
H       -2.5397690130    2.4701092234    5.3112813604
H       -2.7538587313    1.5046425122    3.8509346814
H       -1.5094710258    2.7812380605    3.8909933704
H        0.6510823548    1.0017172896    6.2681692661
H       -0.9371993520    0.8361756762    7.0722452949
H       -0.3863226960    2.4069232246    6.4468392188
29   

C        2.7306886753   -0.8013119161    0.1038493051
C        2.3011311876    0.1997957531    0.9763862493
C        2.6542123537   -2.1388740231    0.4951130828
C        1.7873171842   -0.1366462053    2.2343061229
C        2.1460751500   -2.4719688088    1.7560581318
C        0.3368367267   -1.7707384648    5.9492379631
C        1.2676704925   -2.8605392681    5.8352314623
C        1.6870277358   -1.4826573561    2.6468486260
C        0.2767980633   -1.2081992148    4.7051343263
C       -0.5889520402   -0.0975406828    4.1991355012
C       -1.9099266636    1.9653482958    4.5676675703
C       -0.1562862644    1.2965307476    6.2180790611
N        1.7457685861   -2.9018330048    4.6193675984
N        1.1959826240   -1.8599714072    3.9214251208
N       -0.9265752848    0.9855511781    5.0183142114
O       -1.1541739580   -0.2030682764    3.1093466093
H        3.1246660768   -0.5408709304   -0.8720661248
H        2.3680113009    1.2408054333    0.6811266648
H        2.9871449514   -2.9215222282   -0.1771517042
H        1.4882125159    0.6686203586    2.8916739713
H        2.0929353143   -3.5146787348    2.0488637835
H       -0.2485937019   -1.5165140167    6.8235439359
H        1.5178024087   -3.5577466540    6.6264935317
H       -2.3627513171    2.4709240773    5.4263450329
H       -2.7191807583    1.4818330009    4.0108644135
H       -1.4322732108    2.7123712597    3.9259212972
H        0.8630047013    0.9028303912    6.1493625594
H       -0.6454239033    0.8816065891    7.1045452465
H       -0.0668440349    2.3807548848    6.3402963071
29   

C        2.6192984827   -0.6377392521    0.0717376507
C        1.2452998453   -0.4831919034    0.2628173873
C        3.3908587668   -1.2355750148    1.0681603228
C        0.6457935610   -0.9150854687    1.4524208507
C        2.7887494606   -1.6613986016    2.2570630934
C        0.0560853348   -1.9244649296    5.7704676898
C        0.8829705773   -3.0763072245    5.5580410333
C        1.4076450515   -1.4910327123    2.4876349556
C        0.0332006179   -1.2568449377    4.5782598119
C       -0.6284140867    0.0574184245    4.2958157052
C       -1.2947736834    2.3349089644    5.0035496701
C        0.5375485119    1.1372973937    6.2111131053
N        1.3512636229   -3.0524132683    4.3392158724
N        0.8466647000   -1.9444739466    3.7077947572
N       -0.5211837372    1.1144056743    5.2062214108
O       -1.4220966647    0.1793742016    3.3577346148
H        3.0824130673   -0.3068341627   -0.8511080663
H        0.6353991724   -0.0396125336   -0.5162575418
H        4.4563390865   -1.3738173788    0.9220073821
H       -0.4287424145   -0.8327195641    1.5332245226
H        3.4037406844   -2.1274430568    3.0189026820
H       -0.4535950864   -1.6561936726    6.6874581499
H        1.0951202111   -3.8432589044    6.2939137858
H       -1.3813674664    2.8908167440    5.9423889689
H       -2.3099198376    2.1020641020    4.6661375514
H       -0.8071739277    2.9710261752    4.2579853217
H        1.3800692411    0.5022592759    5.9185808546
H        0.1533092768    0.8015058004    7.1789013720
H        0.9337276006    2.1519774631    6.3200400376
29   

C        2.5974759587   -0.5057850660    0.2291173903
C        1.2319823539   -0.3145544828    0.4436335499
C        3.3531762190   -1.1985045466    1.1747339904
C        0.6256377422   -0.8035366565    1.6071113620
C        2.7443475408   -1.6845402496    2.3369480369
C       -0.0938048590   -2.0505504797    5.8119362974
C        0.7984284400   -3.1570691513    5.6167350814
C        1.3717782311   -1.4809463218    2.5928167089
C       -0.0835061521   -1.3596964462    4.6353602116
C       -0.7724555528   -0.0572251584    4.3434924891
C       -1.2066145862    2.3218070209    4.8751055918
C        0.6951333750    1.1169823138    5.9715998567
N        1.3299727099   -3.0801735877    4.4250184765
N        0.8049128516   -1.9821670550    3.7929969639
N       -0.4742112681    1.0801658309    5.0983387120
O       -1.7060948214   -0.0077137179    3.5378058060
H        3.0660814512   -0.1284259309   -0.6729478458
H        0.6336769020    0.2037023620   -0.2975491871
H        4.4123031404   -1.3626428227    1.0101607718
H       -0.4431726131   -0.6792581444    1.7015354419
H        3.3504157371   -2.2206797009    3.0588308179
H       -0.6573305500   -1.8200409426    6.7075622459
H        1.0095529954   -3.9308492155    6.3457321282
H       -1.1492750542    2.9616968426    5.7611970284
H       -2.2659066297    2.1226293961    4.6832733370
H       -0.7839754935    2.8598822767    4.0206589096
H        1.4540141002    0.3920874794    5.6602551594
H        0.4050085619    0.9083107393    7.0056716639
H        1.1681111555    2.1031852703    5.9273090094
29   

C        2.5791795777   -0.2858795501    0.4864866023
C        1.2229886241   -0.0578149936    0.7228241415
C        3.3060172372   -1.0931792171    1.3619035523
C        0.5977523018   -0.6241861487    1.8397333297
C        2.6780826517   -1.6596767424    2.4768730907
C       -0.3920639220   -2.2968048844    5.7927680552
C        0.5235090491   -3.3810297890    5.5649153679
C        1.3164815033   -1.4225617300    2.7549078325
C       -0.2064912526   -1.4432217280    4.7471847257
C       -0.9112521340   -0.1459593094    4.4653310482
C       -0.9704231007    2.3358952191    4.5301917671
C        0.9740975018    1.0844612816    5.5076747015
N        1.1878511059   -3.1680641776    4.4575320205
N        0.7277699842   -1.9998659459    3.9088703224
N       -0.3118065106    1.0652710081    4.8173048796
O       -1.9747776908   -0.1378004425    3.8403775780
H        3.0627400781    0.1530379007   -0.3791423018
H        0.6469718152    0.5508365635    0.0345063611
H        4.3576745374   -1.2836694535    1.1788601420
H       -0.4646047422   -0.4568609705    1.9549554633
H        3.2594907838   -2.2844411114    3.1459842521
H       -1.0806419973   -2.1876349120    6.6215891698
H        0.6546439733   -4.2382832663    6.2151081457
H       -0.7953634569    3.0485529333    5.3421624340
H       -2.0544447553    2.2131995059    4.4391690427
H       -0.5837795313    2.7559627495    3.5965913192
H        1.0585919324    0.2535853153    6.2150997110
H        1.0885616227    2.0078651504    6.0837774710
H        1.7913943477    1.0209705941    4.7819918836
29   

C        2.5576076385   -0.2002869284    0.6254742789
C        1.1950156778   -0.0089454324    0.8593831889
C        3.3008655600   -1.0056959939    1.4895580093
C        0.5798264436   -0.6096282925    1.9636192393
C        2.6830391191   -1.6064706827    2.5922804499
C       -0.5720628588   -2.4875531300    5.7197131492
C        0.3819596882   -3.5397907779    5.4945231783
C        1.3166240368   -1.4041925288    2.8681192928
C       -0.2625598471   -1.5171608891    4.8148237542
C       -0.9730050314   -0.2187900299    4.5643216072
C       -0.9246940520    2.2587975100    4.3202144637
C        1.0644400989    1.0385595920    5.2283381413
N        1.1610350614   -3.2179038452    4.4931751325
N        0.7359187914   -2.0097754997    4.0101018349
N       -0.2785989627    0.9925048857    4.6560652659
O       -2.1226996172   -0.2166835826    4.1173351724
H        3.0338845573    0.2657149443   -0.2300147615
H        0.6075547885    0.5985033012    0.1797206050
H        4.3573684088   -1.1678133424    1.3069554264
H       -0.4870728388   -0.4687258235    2.0855019650
H        3.2735639192   -2.2301088817    3.2545998565
H       -1.3612190540   -2.4693463281    6.4614388790
H        0.4566226261   -4.4529268823    6.0736942275
H       -0.7147307662    3.0077161442    5.0903166395
H       -2.0129395640    2.1599441836    4.2591632786
H       -0.5540512914    2.6228712873    3.3572108225
H        1.2114049002    0.2435612561    5.9665226054
H        1.2284653011    1.9881364271    5.7472502719
H        1.8162408971    0.9369587671    4.4392973256
29   

C        2.5202763222   -0.1975215974    0.6634423714
C        1.1547232997   -0.0307711832    0.9005864863
C        3.2828638482   -0.9802318793    1.5319599309
C        0.5558231326   -0.6333293348    2.0127669354
C        2.6812350865   -1.5829283371    2.6425289492
C       -0.6654381020   -2.5827880907    5.6584728597
C        0.3154176563   -3.6130885558    5.4473474817
C        1.3126786120   -1.4038555526    2.9209110651
C       -0.3044776188   -1.5586529115    4.8350289968
C       -1.0105165632   -0.2511427580    4.6457890308
C       -0.9835902612    2.2043467002    4.2760163946
C        1.0825948852    1.0377587231    5.0581143011
N        1.1574968841   -3.2325322923    4.5205268147
N        0.7459152466   -2.0083626394    4.0691247716
N       -0.3021785468    0.9557043395    4.6008272384
O       -2.2195759183   -0.2362045782    4.3993686219
H        2.9843757633    0.2701290838   -0.1978566532
H        0.5535049192    0.5597335387    0.2180265968
H        4.3416939758   -1.1231866626    1.3466325065
H       -0.5125630552   -0.5109828081    2.1451082408
H        3.2846330617   -2.1896362509    3.3090825119
H       -1.4998596800   -2.6062765371    6.3490013926
H        0.3637838625   -4.5524866412    5.9858783500
H       -1.3411776283    2.6879757561    5.1904250523
H       -1.8348761947    2.0329955858    3.6095842794
H       -0.2980090859    2.8821749805    3.7578782513
H        1.3308553617    0.2159021256    5.7373107217
H        1.2421951687    1.9672208967    5.6138492422
H        1.7689108579    1.0165427504    4.2059341291
29   

C        0.8509198479   -1.7885676068    0.3632673594
C        0.0987522539   -2.2803912270    1.4318945226
C        1.9017092336   -0.9021159916    0.6061229431
C        0.3877566417   -1.8747976747    2.7399962713
C        2.1901316281   -0.5002977838    1.9151810434
C        1.6637426726   -0.2919612274    6.5013214257
C        3.0172197203   -0.2177217085    6.0218694489
C        1.4266818286   -0.9584295080    3.0055396132
C        0.8812775643   -0.3899416200    5.3891353612
C       -0.6118978269   -0.4657965447    5.3659277588
C       -2.8174866793   -0.0921209811    4.3063033486
C       -0.8324630160    1.2016405198    3.5223433307
N        3.0252148519   -0.3187559096    4.7172777420
N        1.7330983056   -0.5135367663    4.3132439591
N       -1.3776516271    0.1354003518    4.3591090135
O       -1.1962928435   -1.1337085402    6.2242191178
H        0.6265805394   -2.1018367541   -0.6503927354
H       -0.7062953519   -2.9838551850    1.2500732779
H        2.4966037111   -0.5252787545   -0.2185487498
H       -0.1946792098   -2.2978274252    3.5498768446
H        3.0104622426    0.1869580475    2.0922242379
H        1.3309159115   -0.2352699279    7.5309578911
H        3.8948970000   -0.0751202950    6.6416836024
H       -3.3317962649    0.5766245804    5.0037080644
H       -3.0582518872   -1.1289956402    4.5623466640
H       -3.1928779039    0.0906416705    3.2944834791
H       -0.6009853980    0.8252005707    2.5212615698
H        0.0724066329    1.6341867220    3.9607966951
H       -1.5583051165    2.0158281517    3.4299542696
29   

C        0.8594056082   -1.7918548795    0.3513039434
C        0.0832592965   -2.2556987206    1.4157150091
C        1.9166393993   -0.9134156659    0.5959004150
C        0.3553889243   -1.8302147295    2.7213826472
C        2.1886566975   -0.4927161125    1.9023690961
C        1.6044045023   -0.2995987295    6.4837859683
C        2.9649323677   -0.2554911345    6.0223389921
C        1.4019673590   -0.9235192602    2.9870454907
C        0.8285750224   -0.3507885334    5.3626327906
C       -0.6643652449   -0.3104450103    5.3607007548
C       -2.8735889938    0.0558956969    4.3214792029
C       -0.8641159808    1.1786833262    3.3672950091
N        2.9855516154   -0.3193140136    4.7159711330
N        1.6935603540   -0.4650112989    4.2922380453
N       -1.4224390009    0.2029462034    4.3004190267
O       -1.2704062996   -0.7547579636    6.3405667141
H        0.6484435931   -2.1201033298   -0.6605093171
H       -0.7275280333   -2.9520110707    1.2320081576
H        2.5295322840   -0.5578347211   -0.2250791702
H       -0.2463422734   -2.2255535681    3.5311986351
H        3.0146587279    0.1870654076    2.0822291019
H        1.2613815409   -0.2392722320    7.5101331473
H        3.8386940472   -0.1549710571    6.6557903734
H       -3.3168287797    0.7737291874    5.0190734689
H       -3.1529900347   -0.9579617469    4.6262263067
H       -3.2887029874    0.2268294669    3.3231616227
H       -0.6934162656    0.7236758062    2.3869860325
H        0.0758610876    1.5983501398    3.7389008647
H       -1.5554457958    2.0184584466    3.2440699028
29   

C        0.8854739115   -1.7657554855    0.3520884800
C        0.1151231531   -2.2394603982    1.4166893487
C        1.9326762952   -0.8751700755    0.5965089217
C        0.3834445701   -1.8121386907    2.7227472845
C        2.2013406431   -0.4532993445    1.9031934837
C        1.6351309902   -0.3770967772    6.4910962279
C        2.9931685174   -0.3247228321    6.0245325381
C        1.4209510253   -0.8953484809    2.9876270942
C        0.8486586548   -0.3790486702    5.3747629033
C       -0.6385502552   -0.2458099821    5.4150934510
C       -2.8763369215    0.1039337620    4.4438298536
C       -0.8911327178    1.1139399754    3.3380744019
N        3.0062066734   -0.3255116542    4.7169590871
N        1.7112774910   -0.4421551600    4.2940416128
N       -1.4237931089    0.1963677602    4.3422328091
O       -1.2151247553   -0.4913273187    6.4788148774
H        0.6778737135   -2.0953957685   -0.6599840441
H       -0.6880603798   -2.9443487974    1.2323691509
H        2.5408632534   -0.5116538081   -0.2245338573
H       -0.2138028623   -2.2105330902    3.5344624062
H        3.0203813908    0.2346170120    2.0841859941
H        1.3002950835   -0.3363147138    7.5213254818
H        3.8709367614   -0.2590837446    6.6570182537
H       -3.2605967492    0.8854581965    5.1072220704
H       -3.1710519763   -0.8745590887    4.8371338808
H       -3.3361468827    0.2162431981    3.4568381079
H       -0.7764049303    0.6115049192    2.3730687615
H        0.0715593298    1.5326850686    3.6467229486
H       -1.5718727908    1.9610243645    3.2060699098
29   

C        0.9145324058   -1.7359964765    0.3558735939
C        0.1420951198   -2.2157331875    1.4165153818
C        1.9517513212   -0.8349708243    0.6051964846
C        0.3987638963   -1.7844123136    2.7237597332
C        2.2091919598   -0.4096592439    1.9129722455
C        1.6270250192   -0.4321608927    6.4992462100
C        2.9867380824   -0.3831571273    6.0383573981
C        1.4270817627   -0.8589022569    2.9929103890
C        0.8396798440   -0.3864030081    5.3829921666
C       -0.6360253400   -0.1487654662    5.4518281987
C       -2.8929459441    0.1924131253    4.5335456704
C       -0.9296450337    1.0782837727    3.3008369272
N        3.0037066182   -0.3282369589    4.7324599900
N        1.7089684218   -0.4093213094    4.3016038114
N       -1.4432211674    0.2254695872    4.3693772757
O       -1.1724074236   -0.1844767379    6.5623258979
H        0.7163798647   -2.0688279471   -0.6570597112
H       -0.6534794429   -2.9280649396    1.2279167046
H        2.5614179659   -0.4666969888   -0.2126490746
H       -0.2000434584   -2.1838779771    3.5339106102
H        3.0215079248    0.2848594237    2.0991369878
H        1.2936319611   -0.4024575249    7.5304653720
H        3.8633780471   -0.3548659272    6.6751676827
H       -3.2266920190    1.0442469205    5.1348770581
H       -3.2001210677   -0.7346976461    5.0288184041
H       -3.3887567557    0.2271321711    3.5582852810
H       -0.8604624420    0.5262493372    2.3590599139
H        0.0499555045    1.4941327189    3.5546846904
H       -1.5991866105    1.9308425257    3.1483170910
