44

C     -3.40144    4.50933   -0.31032
C     -2.43960    2.75335    1.06706
C     -2.97178    3.15682   -0.14412
C     -3.31219    5.40198    0.72471
C     -2.30750    3.67609    2.17897
C      0.66796    0.73101   -2.33592
C     -2.07457    1.31125    1.29090
C      0.38196   -0.80537    0.52075
C      1.56577    1.37036    0.98202
C     -0.37759   -0.35770    1.78542
C      0.30902    2.00018    1.62274
C      2.36087   -0.11173   -0.97636
C      1.18269    0.36270   -0.09723
C     -3.10544    2.20557   -1.30759
C     -3.75317    6.83605    0.65648
C      2.53650   -0.38256   -3.49611
N     -2.78602    4.97113    1.91087
N      1.76989   -0.09066   -2.30108
N     -0.78698    1.03335    1.65509
O     -1.82540    3.43294    3.29340
O      0.05488    1.11983   -3.31005
O     -2.92124    0.42301    1.14073
O      0.32449    1.06494   -1.05341
H     -3.80753    4.83677   -1.26077
H      1.06317   -1.62436    0.77736
H     -0.31830   -1.17947   -0.23067
H      2.18825    2.16330    0.55702
H      2.17193    0.85073    1.73333
H     -1.26674   -0.96522    1.94498
H      0.26223   -0.44741    2.67141
H      0.52739    2.36141    2.63325
H     -0.00272    2.85543    1.02426
H      3.22120    0.57297   -0.91190
H      2.70117   -1.11535   -0.70454
H     -2.15929    1.69914   -1.51417
H     -3.41441    2.73473   -2.21216
H     -3.84255    1.43269   -1.07445
H     -4.54256    7.03816    1.38978
H     -4.14105    7.07058   -0.33607
H     -2.91898    7.51505    0.86838
H      3.41355    0.27439   -3.58116
H      1.89214   -0.22593   -4.36210
H      2.87580   -1.42331   -3.48298
H     -2.70122    5.61069    2.69546
