18

C      1.45725    0.68463    1.64227
C      0.15126    0.45236    1.11455
C      1.52529    0.05581    2.87248
C     -0.54255   -0.30656    2.04141
C     -1.94112   -0.84710    2.00781
C     -1.96536   -2.31198    1.54501
N      0.30276   -0.53315    3.11036
N     -2.76855   -0.06550    1.09209
F     -3.24630   -2.77581    1.49984
F     -1.42136   -2.51192    0.33642
F     -1.29705   -3.09559    2.43640
H      2.25491    1.24842    1.17624
H     -0.24298    0.78158    0.16279
H      2.32962   -0.01434    3.59180
H     -2.33276   -0.88910    3.03983
H      0.08547   -1.12079    3.90337
H     -2.69784    0.91882    1.33724
H     -3.74447   -0.34275    1.16978
