41

C     -8.50397    5.24006   -5.53086
C     -7.33218    4.57187   -5.17297
C     -2.31356   -0.24671   -1.76794
C     -2.98439   -1.44815   -1.98319
C     -3.29624    1.73766   -4.76970
C     -3.90175   -0.58994   -4.06478
C     -6.13463    5.84582   -6.84544
C     -3.22789    0.63007   -3.85496
C     -2.64011    2.90647   -4.52950
C     -8.52284    6.21122   -6.53850
C     -7.31109    6.51329   -7.19906
C     -6.13476    4.87316   -5.83489
C     -2.43950    0.78490   -2.70081
C     -3.77607   -1.60854   -3.13181
C     -1.84165    3.05776   -3.29847
C     -2.67600    4.04341   -5.49429
C     -9.80765    6.91802   -6.90277
C     -7.27673    7.55616   -8.29227
C     -1.36792    4.57131   -6.02330
N     -3.76598    4.57950   -5.93623
N     -4.97509    4.15767   -5.49229
O     -1.24813    4.05647   -2.95607
O     -1.77233    1.95017   -2.45331
Br    -4.69953   -3.26286   -3.40983
H     -9.42673    4.99750   -5.00826
H     -7.35001    3.82234   -4.38370
H     -1.69631   -0.09661   -0.88779
H     -2.89640   -2.25689   -1.26541
H     -3.88530    1.63026   -5.67807
H     -4.51382   -0.72062   -4.95190
H     -5.20148    6.07586   -7.34755
H     -9.74311    7.99792   -6.72117
H    -10.05635    6.78991   -7.96310
H    -10.64674    6.53336   -6.31649
H     -7.91863    7.27255   -9.13499
H     -7.63785    8.52648   -7.93211
H     -6.26280    7.69610   -8.67525
H     -0.76158    3.76166   -6.44758
H     -1.56612    5.31263   -6.79999
H     -0.78385    5.03390   -5.22259
H     -5.01723    3.61799   -4.62971
