15

C      0.12308   -0.67620    1.16101
C      1.22396   -0.05719    1.76235
C      1.58492   -0.46462    3.05758
C     -0.56147   -1.66210    1.86899
C      0.81023   -1.46975    3.66092
C      1.93474    1.01019    0.95099
N     -0.22381   -2.04957    3.09371
O      1.55444    1.29875   -0.16237
O      2.65472    0.11194    3.68331
O      2.99758    1.62567    1.50326
Cl    -1.94016   -2.45116    1.13986
Cl     1.25537   -1.98627    5.28771
H     -0.17093   -0.37567    0.16239
H      2.76907   -0.27543    4.57245
H      3.18096    1.28528    2.40141
