31

C     -2.10229    1.59198    1.22118
C     -1.67198    0.64178    0.28553
C     -7.41295    0.08509    6.51019
C     -6.47778    0.19697    5.47832
C     -3.16717    1.29335    2.06446
C     -8.78069    0.20362    6.24492
C     -2.31495   -0.58902    0.20330
C     -8.27054    0.59714    3.89152
C     -6.90586    0.44709    4.16622
C     -3.83028    0.05949    1.98342
C     -9.17754    0.45647    4.93442
C     -3.40309   -0.89351    1.04071
C     -5.92983    0.68805    3.04623
C     -5.03964   -1.63358    3.28550
C     -5.44153   -2.48549    2.08392
N     -4.89045   -0.22637    2.90179
O     -6.04510    1.68626    2.34250
F    -10.50210    0.57997    4.66784
S     -4.13077   -2.50143    0.81111
H     -1.60784    2.55618    1.29580
H     -0.83775    0.85835   -0.37615
H     -7.07809   -0.09369    7.52812
H     -5.41629    0.11003    5.69257
H     -3.50908    2.02149    2.79156
H     -9.52779    0.11330    7.02739
H     -1.98187   -1.32808   -0.52150
H     -8.61434    0.83241    2.88938
H     -5.80717   -1.71768    4.05179
H     -4.09445   -1.98906    3.70699
H     -5.58710   -3.52678    2.38447
H     -6.37537   -2.11078    1.65658
