37

C     -2.42444   -1.49915    0.85749
C      0.83302    4.29326    0.46623
C     -0.13361    5.14958    1.00792
C      0.67940    2.91737    0.60617
C     -1.24331    4.64005    1.68771
C     -1.10737   -2.02959    0.96600
C     -0.42573    2.37402    1.28500
C     -0.84855   -3.44731    0.99572
C     -1.39403    3.25410    1.83297
C      0.49025   -3.73429    1.04774
C      0.05364   -1.25354    1.00495
C     -0.59726    0.93255    1.42286
C     -1.90617   -4.52143    0.95588
C      1.07685   -5.11786    1.11024
C     -1.32899   -5.88277    1.37601
C      0.01914   -6.15596    0.69409
C     -3.49045    3.49727    2.97485
N     -3.51979   -1.10284    0.77080
N      0.27101    0.10065    0.94380
O     -2.43725    2.66901    2.48642
S      1.46462   -2.28685    1.04353
H      1.69131    4.69969   -0.06079
H     -0.02722    6.22626    0.90251
H      1.40684    2.22589    0.19264
H     -1.97655    5.32410    2.09861
H     -1.48755    0.59794    1.95814
H     -2.74612   -4.24422    1.60229
H     -2.31625   -4.58434   -0.06100
H      1.95831   -5.19450    0.46347
H      1.42226   -5.32776    2.13180
H     -1.19053   -5.89776    2.46467
H     -2.04440   -6.67623    1.13535
H     -0.11210   -6.12067   -0.39462
H      0.37730   -7.16088    0.94186
H     -4.22413    2.81567    3.40563
H     -3.95485    4.06672    2.16158
H     -3.12926    4.18411    3.74952
