29

C      1.88174   -1.25857   -0.02305
C      0.81229   -0.62544    0.62558
C      2.87453   -1.89004    0.73115
C      0.73582   -0.62325    2.01612
C      2.79711   -1.88872    2.12534
C     -1.61618   -1.32037    7.70527
C     -0.26607   -3.29439    7.24066
C     -2.69270   -2.13768    8.05616
C     -1.33892   -4.11358    7.59084
C      1.72923   -1.25685    2.78887
C     -0.41770   -1.90661    7.29429
C     -2.54340   -3.52547    7.99149
C      1.70187   -1.29069    4.25394
C      0.78431   -0.73431    5.05869
O      0.69826    0.48389    7.38986
O      2.20568   -1.58046    7.11853
S      0.96143   -0.84971    6.82703
Cl    -3.89159   -4.55328    8.43120
H      1.93809   -1.25695   -1.10832
H      0.03948   -0.13292    0.04148
H      3.70731   -2.38143    0.23546
H     -0.09901   -0.12649    2.50207
H      3.57163   -2.37854    2.71080
H     -1.69498   -0.23943    7.76772
H      0.68502   -3.72587    6.94430
H     -3.63248   -1.70505    8.38376
H     -1.24340   -5.19418    7.56195
H      2.52200   -1.81783    4.74023
H     -0.08167   -0.16023    4.74479
