33

C      5.76898    2.40762    0.31881
C      5.66503    2.65766    1.68887
C      5.54630    1.11402   -0.16064
C      2.26008   -0.22006    0.91581
C      1.10745    0.08836    1.63073
C      5.35465    1.61989    2.57665
C      2.23086   -2.43269    1.89009
C      1.09800   -2.12939    2.64216
C      2.85062   -1.48511    1.06228
C      5.17115    0.08226    0.70430
C      0.52815   -0.83957    2.51575
C      5.11982    0.32729    2.09618
C      0.46312   -3.15441    3.55010
C      4.41913   -0.50782    4.22557
N      3.99480   -1.94148    0.34577
N      5.00402   -1.22381    0.12989
N     -0.65756   -0.52184    3.19305
O      4.84841   -0.74886    2.89017
H      6.02972    3.20660   -0.36935
H      5.84281    3.65637    2.07874
H      5.63027    0.88623   -1.22005
H      2.68280    0.51432    0.24012
H      0.64121    1.06329    1.50148
H      5.30359    1.82497    3.64049
H      2.67765   -3.42168    1.95341
H      0.47705   -2.83564    4.60201
H     -0.58443   -3.33379    3.27934
H      0.99300   -4.10821    3.49513
H      4.10601   -1.47746    4.61480
H      3.56875    0.18401    4.24356
H      5.23323   -0.11397    4.84659
H     -0.83883    0.47169    3.27716
H     -0.79174   -0.99839    4.07677
