39

C     -1.13642    0.61543    2.09943
C     -2.01002    1.20364    1.18846
C      3.18226    3.95369   -0.48849
C     -0.04582   -0.12329    1.64422
C      3.52428    3.06510   -1.50725
C      2.70227    2.11700    0.97097
C     -1.81685    1.06002   -0.19171
C      2.75686    3.49838    0.76722
C      0.20286   -0.25379    0.27079
C     -0.70166    0.32377   -0.64512
C      3.44955    1.68234   -1.30363
C      3.03621    1.21289   -0.04481
C     -2.83176    1.74297   -1.07868
C      1.20757   -1.46366   -1.59698
C      0.69609   -0.35052   -2.49414
C      2.34761    4.46022    1.85799
N      1.32233   -1.00088   -0.20804
O     -3.74850    2.39105   -0.61380
O      3.83289   -1.33159   -0.43340
O      2.84960   -0.62773    1.80241
O     -0.56598    0.14700   -2.00591
O      3.73793    0.78956   -2.30097
O     -2.69512    1.62518   -2.41824
S      2.88909   -0.53807    0.34461
H     -1.31053    0.71365    3.16677
H     -2.86936    1.77903    1.51543
H      3.24774    5.02220   -0.67922
H      0.63243   -0.60260    2.33930
H      3.85111    3.44532   -2.47377
H      2.40798    1.71857    1.93587
H      0.51117   -2.30834   -1.60609
H      2.18167   -1.81314   -1.93761
H      1.40772    0.47484   -2.54127
H      0.49367   -0.71243   -3.50410
H      1.27590    4.68294    1.79869
H      2.54266    4.04283    2.84961
H      2.88733    5.40803    1.77684
H      4.11225    1.27209   -3.05582
H     -1.91173    1.07314   -2.62132
