21

C     -0.99268    2.51349    0.36168
C     -1.39054    3.69636    0.99222
C     -0.49851    1.51975    2.50952
C     -0.54660    1.41799    1.11140
C     -1.34620    3.78039    2.37879
C     -0.90166    2.69382    3.13238
C     -1.29942   -0.89864    0.09713
C     -0.56949   -1.08902   -1.25397
C     -0.16990    0.12143    0.44046
N      0.14216    0.19709   -1.01109
F     -1.72483    4.91447    3.01014
F     -0.85782    2.79777    4.47994
H     -1.01340    2.42866   -0.71980
H     -1.73337    4.55721    0.42554
H     -0.15056    0.69501    3.12663
H     -2.26757   -0.40537   -0.01186
H     -1.39719   -1.76743    0.75072
H      0.08617   -1.97107   -1.24735
H     -1.17671   -1.10069   -2.16476
H      0.61801   -0.37789    1.02485
H      1.13556    0.20108   -1.23521
