14

C     -1.55204   -1.31569    0.71510
C     -1.12260   -3.56019    0.63769
C     -0.28087   -1.06034    0.16997
C      0.13830   -3.27930    0.09531
C      1.85376    0.48234   -0.80598
N     -1.96028   -2.56426    0.94381
N      0.55910   -2.04613   -0.13750
F      1.87805   -0.18613   -1.96812
F      2.72949   -0.09326    0.03049
F      2.26841    1.74739   -1.04130
S      0.17138    0.64586   -0.09699
Cl     1.22016   -4.59239   -0.29923
H     -2.23789   -0.50910    0.96568
H     -1.44813   -4.58008    0.82104
