28

C      3.29275   -6.82662    3.13470
C      4.61735   -6.41941    2.90221
C      2.21782   -5.99733    2.81074
C      4.88886   -5.16823    2.33855
C      2.46755   -4.73868    2.24511
C      3.81097   -4.34287    2.01837
C      2.03910   -2.75207    1.38359
C      0.03749    0.26418   -0.52489
C     -0.06958    1.58622   -0.75886
C     -0.55234   -0.50866    0.58812
C     -0.74634    2.62823    0.08515
N      1.49386   -3.82070    1.87112
N      0.03994   -1.48074    1.20546
N     -1.83621   -0.16526    1.02377
N      1.37806   -1.66232    0.87082
S      3.83117   -2.73199    1.30680
H      3.10254   -7.80269    3.57324
H      5.44081   -7.07911    3.16148
H      1.19087   -6.30407    2.98602
H      5.91288   -4.85307    2.15867
H      0.62382   -0.33808   -1.21733
H      0.41883    1.96017   -1.65937
H     -1.57363    3.09041   -0.46892
H     -0.03923    3.43496    0.31333
H     -1.13818    2.22119    1.01731
H     -2.48158    0.04120    0.26774
H     -2.20797   -0.85992    1.66754
H      1.93924   -0.82724    0.72619
