35

C     -3.05374   -5.50823   -0.82217
C     -5.24880   -2.59063   -1.56961
C      1.64713   -1.01296    0.21512
C      0.25155   -1.03087    0.10984
C     -4.47063   -1.86859   -2.47818
C     -4.77395   -3.79009   -1.03587
C      2.38285   -2.12067   -0.20424
C     -0.38686   -2.15103   -0.41742
C     -3.21188   -2.34516   -2.85830
C     -3.51314   -4.28086   -1.41189
C      1.76271   -3.25042   -0.75727
C      0.36112   -3.24760   -0.86904
C     -2.73933   -3.54167   -2.32712
C      2.60256   -4.44967   -1.15616
C      1.81593   -5.52734   -1.91152
C      0.41885   -5.67002   -1.31271
N     -2.73702   -6.50328   -0.30692
N     -0.32110   -4.39066   -1.41538
O     -1.34110   -5.45717   -3.49569
O     -0.52870   -3.04948   -3.66107
S     -1.13385   -4.13935   -2.89309
H     -6.22510   -2.21982   -1.27130
H      2.15520   -0.14693    0.63077
H     -0.33738   -0.18379    0.45112
H     -4.83842   -0.93359   -2.89092
H     -5.36862   -4.35497   -0.32494
H      3.46719   -2.11356   -0.11087
H     -1.46965   -2.18325   -0.47081
H     -2.58363   -1.79397   -3.55034
H      3.45791   -4.11348   -1.75178
H      3.02144   -4.88490   -0.23919
H      1.71815   -5.26515   -2.97014
H      2.34450   -6.48515   -1.86312
H     -0.16587   -6.44455   -1.80416
H      0.45875   -5.90820   -0.24497
