27

C      0.72096    0.08741    2.03269
C      0.74316    0.87415    3.20028
C      2.51810    0.76929   -1.66087
C      3.46511    1.77945   -1.32517
C     -1.50757    0.91385    1.42923
C     -0.38187    0.10128    1.17177
C     -0.35402    1.68210    3.43000
C     -1.44746    1.70217    2.56071
C      1.23425    1.12360   -1.32378
C      2.86182    2.86662   -0.73914
C     -1.79273    3.23883    4.15318
N     -0.38057   -0.70350   -0.01179
O      0.12408   -0.96076   -2.46103
O     -1.34908    0.98627   -1.65104
O     -0.59141    2.52452    4.49338
O     -2.40953    2.55650    3.04836
S      1.13886    2.69759   -0.58989
S     -0.20103    0.09751   -1.50737
Cl     3.64754    4.30427   -0.18910
H      1.58196   -0.52992    1.79048
H      1.58871    0.85890    3.88001
H      2.75789   -0.17068   -2.14617
H      4.53083    1.71755   -1.51371
H     -2.35785    0.91849    0.75770
H     -2.47239    3.23102    5.00775
H     -1.53295    4.26139    3.84902
H      0.28272   -1.47624    0.01787
