20

C      1.95426   -0.91370    0.00026
C      0.80562   -0.41197    0.60963
C      2.97017   -1.50820    0.75691
C      1.65539   -1.09186    2.77885
C      0.64344   -0.50086    2.00573
C      2.78928   -1.57462    2.13535
C      4.77723   -1.45560    3.40258
N     -0.52102    0.20107    3.98180
N     -0.55016   -0.04535    2.58873
O      3.77378   -2.22226    2.92107
F      5.50959   -0.86715    2.42486
F      5.59276   -2.24521    4.11606
F      4.34122   -0.45881    4.21100
H      2.06144   -0.84111   -1.07855
H      0.02402    0.04186    0.00371
H      3.87082   -1.90435    0.30105
H      1.54860   -1.16685    3.85361
H     -1.43308   -0.02410    4.36988
H     -0.30035    1.17715    4.18519
H     -1.01662    0.66611    2.03104
