20

C      1.81014   -1.22529   -0.00007
C      0.68460   -0.59625    0.52219
C      2.86706   -1.62458    0.82918
C      1.63531   -0.74009    2.74868
C      0.58127   -0.34550    1.90700
C      2.74377   -1.37211    2.18973
C      3.80420   -2.93753    3.60374
N     -0.58522    0.89803    3.66876
N     -0.57839    0.24862    2.41416
O      3.81814   -1.70302    3.04885
F      3.82311   -3.93023    2.68373
F      2.71568   -3.15096    4.38346
F      4.89671   -3.05465    4.37051
H      1.87268   -1.40400   -1.06995
H     -0.12524   -0.29339   -0.13784
H      3.75402   -2.11056    0.43819
H      1.60291   -0.57989    3.82007
H      0.29699    1.39180    3.82550
H     -0.69100    0.19700    4.39963
H     -1.11140    0.77689    1.73382
