42

C      0.01807   -1.24911   -8.32041
C     -1.26229   -0.91154   -7.86902
C      0.84517   -2.04478   -7.51987
C      2.13614   -6.43997    1.49431
C     -1.72012   -1.36014   -6.62882
C      0.40380   -2.50236   -6.27739
C      1.50668   -7.68195    1.49430
C      0.03635   -6.88066   -0.27622
C      1.74486   -5.40142    0.63775
C     -0.87948   -2.15395   -5.84069
C      0.67598   -5.62818   -0.25321
C      0.46214   -7.86944    0.59302
C     -1.36921   -3.57634   -2.70207
C     -2.62805   -2.95216   -2.92823
C     -1.03477   -4.46221   -1.55248
C      2.50475   -4.08965    0.67614
C      1.81845   -2.99887   -0.14424
C      1.31237   -3.58653   -1.46046
C     -3.85368   -2.92389   -2.07454
N     -0.58180   -3.34815   -3.76321
N     -2.57357   -2.34354   -4.11461
N     -1.33811   -2.61363   -4.57656
N      0.29137   -4.61124   -1.18094
O     -1.96330   -5.05617   -1.00041
F     -0.16447   -9.07585    0.55823
H      0.36757   -0.89702   -9.28694
H     -1.91231   -0.29525   -8.48406
H      1.84014   -2.31469   -7.86316
H      2.95880   -6.26242    2.18358
H     -2.70980   -1.10721   -6.26724
H      1.03317   -3.12324   -5.65056
H      1.80577   -8.48269    2.16295
H     -0.78654   -7.08293   -0.94785
H      2.63265   -3.76734    1.71512
H      3.51493   -4.25735    0.27968
H      0.96564   -2.58189    0.40344
H      2.51202   -2.17650   -0.34895
H      0.88045   -2.81594   -2.08914
H      2.13482   -4.04741   -2.02044
H     -3.61159   -2.61722   -1.05329
H     -4.58497   -2.23180   -2.49738
H     -4.29141   -3.92313   -2.00648
