19   

C        0.2864808700   -1.1772538858    0.6306168389
C        2.6562732672   -0.8078608083    0.4968742123
C        0.4337979783   -1.4176304486    2.0060666814
C        2.7337690762   -1.0583979758    1.8789048428
C        1.4104712069   -0.8736013174   -0.1498429341
C        1.1656998246   -0.5942062121   -1.6246463529
C        1.7530021303   -1.5937647739    4.0526586763
N        1.6391333665   -1.3614641685    2.6047010228
N        2.2551292836   -0.6108878080   -2.4426087570
O        0.0635753781   -0.3758794601   -2.0890609759
H       -0.6991714835   -1.2198436842    0.1684587213
H        3.5573706730   -0.5464037235   -0.0498065591
H       -0.4534317788   -1.6503489096    2.5895154256
H        3.7031366293   -0.9986606276    2.3671983732
H        1.8705900669   -2.6625752507    4.2599626373
H        2.6149072288   -1.0560583208    4.4604999375
H        0.8606465025   -1.2257903798    4.5693547726
H        2.0596285852   -0.4491902149   -3.4266769979
H        3.1638987874   -0.9308539949   -2.1383692530
19   

C        0.3036069957   -1.1998505692    0.6072979876
C        2.6563228209   -0.7241064317    0.5104642604
C        0.4471433888   -1.4691810055    1.9779831482
C        2.7310874674   -1.0063108806    1.8863203563
C        1.4219075580   -0.8248216757   -0.1501957205
C        1.1976617185   -0.5066853582   -1.6174457621
C        1.7508053639   -1.6326807531    4.0358379012
N        1.6429191369   -1.3749114633    2.5917378942
N        2.2370359440   -0.7602820158   -2.4587974403
O        0.1364352482   -0.1117566039   -2.0587059173
H       -0.6729406473   -1.2670233326    0.1292763926
H        3.5460247900   -0.4053282967   -0.0259799261
H       -0.4350909129   -1.7534827792    2.5459387286
H        3.6917315067   -0.9146454627    2.3867694168
H        1.9020409237   -2.7008791911    4.2233027088
H        2.5905056065   -1.0750704342    4.4628784481
H        0.8420407639   -1.3043248821    4.5506756971
H        2.0495066227   -0.5970266589   -3.4441113589
H        3.0682402389   -1.2525677546   -2.1600347789
19   

C        0.3257686691   -1.2238159584    0.5927635433
C        2.6570330888   -0.6498627245    0.5313265703
C        0.4675437940   -1.5196125389    1.9583691867
C        2.7314600652   -0.9610007510    1.9007567430
C        1.4341119301   -0.7802619666   -0.1424254813
C        1.2309157939   -0.4273175026   -1.6034517451
C        1.7564775797   -1.6708720144    4.0266219150
N        1.6525877722   -1.3893064163    2.5866746128
N        2.1631952416   -0.8982640296   -2.4724962612
O        0.2377376197    0.1368366292   -2.0167366726
H       -0.6416996767   -1.3154476655    0.1011152022
H        3.5353558776   -0.2843890189    0.0049123881
H       -0.4073647114   -1.8523719888    2.5111282186
H        3.6832455784   -0.8414982973    2.4121532229
H        1.9393614504   -2.7371223235    4.1958500340
H        2.5749148392   -1.0956569009    4.4712760728
H        0.8338496437   -1.3799333387    4.5393563505
H        1.9745201921   -0.7263309127   -3.4560260750
H        2.9106458857   -1.5148015166   -2.1811242775
19   

C        0.3586359055   -1.2687973475    0.5748070860
C        2.6627149169   -0.5956798802    0.5503238500
C        0.4986198423   -1.5835754354    1.9366264986
C        2.7369225718   -0.9283329700    1.9144212675
C        1.4538003414   -0.7611299479   -0.1387378690
C        1.2674855389   -0.3691497741   -1.5917339724
C        1.7688255772   -1.7086655049    4.0184290336
N        1.6699850181   -1.4131213893    2.5809232797
N        2.0351645654   -1.0228903143   -2.4987149654
O        0.3894060332    0.3824234652   -1.9634016011
H       -0.5992461300   -1.3886647473    0.0714422822
H        3.5287518067   -0.1846011140    0.0367307054
H       -0.3670787991   -1.9619109311    2.4743601627
H        3.6776813687   -0.7770480337    2.4376744640
H        1.9890497410   -2.7693867517    4.1772556846
H        2.5607138105   -1.1091658674    4.4788724426
H        0.8308527076   -1.4574576405    4.5243398148
H        1.8451741958   -0.8139195691   -3.4746887262
H        2.6826222283   -1.7536165051   -2.2315574356
19   

C        0.4140868393   -1.3083822636    0.5436590505
C        2.6859542010   -0.5406379442    0.5833106063
C        0.5362414623   -1.6378255535    1.9041735449
C        2.7443112266   -0.8901872272    1.9434744831
C        1.5026591056   -0.7457761842   -0.1378624091
C        1.3479185484   -0.3091795893   -1.5821885613
C        1.7613875968   -1.7348107330    4.0148526689
N        1.6841856042   -1.4283567150    2.5783121204
N        1.9106401949   -1.1033772470   -2.5239326096
O        0.6791060124    0.6486641886   -1.9108579816
H       -0.5280617867   -1.4574828878    0.0197766087
H        3.5435566973   -0.0832024878    0.0949561276
H       -0.3250573385   -2.0579333383    2.4173908848
H        3.6658372045   -0.7056488931    2.4897788571
H        2.0334050126   -2.7840917933    4.1690496018
H        2.5080636331   -1.0992090632    4.5017604586
H        0.7988241579   -1.5388973088    4.4985095884
H        1.7567766062   -0.8297658909   -3.4901675850
H        2.4127486559   -1.9498864043   -2.2864863099
19   

C        0.8825351905   -0.0594729013    0.7027870194
C        2.5012421298   -1.8071491227    0.4445664599
C        0.8111567610   -0.3740668701    2.0711536917
C        2.3870394549   -2.0727598517    1.8193585134
C        1.7380838303   -0.7861865318   -0.1357525593
C        1.9094634904   -0.3965973490   -1.5921232880
C        1.4959910212   -1.6360186753    4.0497533505
N        1.5528136762   -1.3646899221    2.6052294799
N        1.0642500478   -0.9669575755   -2.4828358982
O        2.7662900712    0.3754410774   -1.9692521554
H        0.2986476704    0.7630121871    0.2951268184
H        3.2023149352   -2.3683568230   -0.1696647775
H        0.1503094094    0.2104132538    2.7062080634
H        3.0006990729   -2.8596437129    2.2506652957
H        0.8076000339   -2.4615899272    4.2579212161
H        2.4907003111   -1.8938859895    4.4279612810
H        1.1585887025   -0.7476451391    4.5932220991
H        1.1954326886   -0.7062563336   -3.4559395283
H        0.3487869156   -1.6262138228   -2.2022284242
19   

C        0.8746126593   -0.1262219122    0.6757125567
C        2.5759270547   -1.7990405076    0.4797681574
C        0.7899609397   -0.4227797872    2.0479170954
C        2.4469888748   -2.0494386416    1.8555033789
C        1.7751244053   -0.8284857026   -0.1353722821
C        1.9775249397   -0.4608081465   -1.5933599693
C        1.4896985623   -1.6234658889    4.0598033360
N        1.5643801639   -1.3703076101    2.6128099049
N        0.9964967806   -0.8231676166   -2.4546216147
O        3.0037334118    0.0360481749   -2.0094206914
H        0.2621997976    0.6634979888    0.2462669569
H        3.3168051978   -2.3322849600   -0.1128950198
H        0.0909754237    0.1402469700    2.6611479104
H        3.0890150057   -2.7996338248    2.3102518787
H        0.8287019536   -2.4714423174    4.2667884177
H        2.4857552184   -1.8392205969    4.4601990674
H        1.1093996120   -0.7409171567    4.5840427083
H        1.1705638938   -0.6302740018   -3.4367971842
H        0.1717313751   -1.3264594612   -2.1521591110
19   

C        0.8464008206   -0.1789808379    0.6543208252
C        2.6181465288   -1.7785082326    0.5015750915
C        0.7600988289   -0.4591893429    2.0303465858
C        2.4864810875   -2.0152380928    1.8789330642
C        1.7824719591   -0.8539114350   -0.1385412639
C        1.9917886041   -0.5166036486   -1.6026124916
C        1.4865878993   -1.6036936543    4.0662130012
N        1.5676188001   -1.3647496263    2.6171621250
N        0.9146193507   -0.6557219641   -2.4166198162
O        3.0829543878   -0.2615405824   -2.0700687500
H        0.2046994337    0.5785148759    0.2103379843
H        3.3863229551   -2.2883445138   -0.0774869288
H        0.0312912928    0.0816297298    2.6286530640
H        3.1552394342   -2.7314573684    2.3496792073
H        0.8781933551   -2.4898594331    4.2746556285
H        2.4881254195   -1.7499062035    4.4840496051
H        1.0417451923   -0.7413782334    4.5729264123
H        1.0865776337   -0.5106770430   -3.4074514513
H        0.0291921444   -1.0147052683   -2.0825210269
19   

C        0.8337299207   -0.2572101957    0.6146948343
C        2.6714526321   -1.7811980682    0.5168601772
C        0.7478741745   -0.5065135477    1.9970708595
C        2.5390771338   -1.9898340881    1.8982441640
C        1.8039498565   -0.9090017770   -0.1557662292
C        2.0105067482   -0.6317080283   -1.6332822940
C        1.5000061755   -1.5732228759    4.0658562527
N        1.5872083231   -1.3620775778    2.6128724460
N        0.8853041779   -0.5576089552   -2.3938100279
O        3.1078148714   -0.5838021404   -2.1519036846
H        0.1616718166    0.4614367498    0.1522614464
H        3.4620439862   -2.2774599137   -0.0441726894
H       -0.0089992129    0.0161386721    2.5763787276
H        3.2324792965   -2.6672791618    2.3902693373
H        0.9102307754   -2.4687728411    4.2875084436
H        2.5010888911   -1.6888957055    4.4941596231
H        1.0320745140   -0.7110396816    4.5515200403
H        1.0379265511   -0.4520482187   -3.3928823206
H       -0.0307367111   -0.7760582931   -2.0240736892
19   

C        0.8162636401   -0.3239022777    0.6050655645
C        2.7236670925   -1.7580686683    0.5582553692
C        0.7277422554   -0.5489436966    1.9917756307
C        2.5871749189   -1.9455384015    1.9418431708
C        1.8253951989   -0.9403409831   -0.1446399812
C        2.0329836365   -0.7216045589   -1.6332575127
C        1.5021154564   -1.5418566616    4.0889327733
N        1.5993053249   -1.3505136821    2.6338689499
N        0.9233674615   -0.4361053863   -2.3689174360
O        3.1117660808   -0.8482332003   -2.1779014539
H        0.1104065550    0.3508694698    0.1285537566
H        3.5389630329   -2.2357616232    0.0163362199
H       -0.0606966333   -0.0536394194    2.5527132995
H        3.3049199069   -2.5822441444    2.4529964869
H        0.9276670463   -2.4455124871    4.3180311177
H        2.5008992728   -1.6327976610    4.5283417537
H        1.0135130243   -0.6816123033    4.5573377362
H        1.0769822811   -0.3492225911   -3.3697137697
H       -0.0111439946   -0.5045750350   -1.9891430153
19   

C        0.7842931523   -0.3873911720    0.5957805507
C        2.7581876015   -1.7249763286    0.5794805794
C        0.7079549551   -0.5849952353    1.9876882055
C        2.6324756064   -1.8880886608    1.9668118072
C        1.8227128695   -0.9666135046   -0.1441015965
C        2.0156619535   -0.8104768409   -1.6451238941
C        1.5246030269   -1.4991094032    4.1045920683
N        1.6174274214   -1.3276139312    2.6467928969
N        0.9601305889   -0.3259944160   -2.3572048916
O        3.0469770882   -1.1075914730   -2.2155967196
H        0.0366339838    0.2340440757    0.1124606691
H        3.5917883402   -2.1840125363    0.0491647830
H       -0.1059967480   -0.1203128076    2.5382802121
H        3.3788329561   -2.4809073111    2.4896415405
H        0.9803659609   -2.4179582812    4.3469300436
H        2.5251093235   -1.5505878431    4.5463842090
H        1.0068948914   -0.6484911385    4.5590343336
H        1.1104175394   -0.2587562413   -3.3600532816
H        0.0395252424   -0.2025493181   -1.9601026117
19   

C        0.7330929598   -0.5094652467    0.5954289073
C        2.8006320876   -1.6905353388    0.6002610783
C        0.6804949211   -0.6719502577    1.9930510271
C        2.6974803575   -1.8231396235    1.9925297447
C        1.8080301234   -1.0241175393   -0.1405108236
C        1.9867015621   -0.9252420445   -1.6510636572
C        1.5732301322   -1.4671336791    4.1272181324
N        1.6480825894   -1.3223404491    2.6655149052
N        1.0220090917   -0.2819136544   -2.3565450078
O        2.9426417639   -1.3964478582   -2.2359248394
H       -0.0755949989    0.0201391785    0.1023208302
H        3.6606375471   -2.1092614310    0.0787429621
H       -0.1670763193   -0.2617964396    2.5361651596
H        3.4883349435   -2.3463126517    2.5242026498
H        1.1022178653   -2.4195892924    4.3923583459
H        2.5760267395   -1.4317251831    4.5653213393
H        0.9924887125   -0.6491439744    4.5650000425
H        1.1765407955   -0.2359157945   -3.3599045695
H        0.2083988646    0.1410939962   -1.9342041977
19   

C        0.6829829777   -0.5837034880    0.5767173092
C        2.8300359007   -1.6209578907    0.5906512182
C        0.6504087298   -0.7200432733    1.9776511446
C        2.7435718980   -1.7305205776    1.9862242663
C        1.7898761614   -1.0371292503   -0.1516997739
C        1.9236473073   -0.9700900334   -1.6656918770
C        1.6043816454   -1.4156092766    4.1199160173
N        1.6655461643   -1.2877411993    2.6560038444
N        1.0517816957   -0.1596717989   -2.3282856543
O        2.7670058071   -1.5886405863   -2.2849484502
H       -0.1708455126   -0.1408948536    0.0731023409
H        3.7078190645   -1.9978034863    0.0668963525
H       -0.2232776698   -0.3644809330    2.5178880176
H        3.5690645704   -2.1912419729    2.5229965294
H        1.1844871187   -2.3875291852    4.4001124944
H        2.6056983389   -1.3228701497    4.5528755071
H        0.9837272028   -0.6227974555    4.5491489061
H        1.1835269759   -0.1154622769   -3.3350139214
H        0.4319936875    0.4834647504   -1.8564218316
19   

C        0.6472606038   -0.6382504817    0.5718442822
C        2.8442218029   -1.5713752464    0.5825504868
C        0.6334861151   -0.7499968377    1.9749637520
C        2.7745610404   -1.6591414508    1.9809559265
C        1.7707157047   -1.0494969952   -0.1556935997
C        1.8566075560   -1.0280604318   -1.6719123050
C        1.6351329027   -1.3699677236    4.1185951061
N        1.6815098820   -1.2561637128    2.6529810584
N        1.1315717341   -0.0691699481   -2.3111899880
O        2.5736983036   -1.7765381486   -2.3059652403
H       -0.2313131059   -0.2561428242    0.0593260207
H        3.7286222960   -1.9233928807    0.0529403027
H       -0.2534342275   -0.4310172115    2.5164889935
H        3.6236734795   -2.0740204647    2.5182669624
H        1.2724100295   -2.3609327823    4.4118709378
H        2.6316023184   -1.2156084596    4.5450023891
H        0.9719000198   -0.6093407670    4.5422993755
H        1.2477501958   -0.0382726431   -3.3202926936
H        0.6728112680    0.6836492369   -1.8162011307
19   

C        0.6014738179   -0.6848093845    0.5733265652
C        2.8411978988   -1.5171508665    0.5641366703
C        0.6093495386   -0.7834554612    1.9771145190
C        2.7911838559   -1.5946047226    1.9644137588
C        1.7363018109   -1.0493131697   -0.1613831732
C        1.7729551764   -1.0606300802   -1.6783900612
C        1.6615786670   -1.3441037166    4.1126321364
N        1.6880875001   -1.2352597336    2.6461365227
N        1.2317293030    0.0176403587   -2.3048139555
O        2.3441239227   -1.9195241734   -2.3198500566
H       -0.2971056231   -0.3515313377    0.0601086942
H        3.7296208338   -1.8412192092    0.0239974096
H       -0.2857674968   -0.5022898231    2.5260656996
H        3.6627395690   -1.9688593450    2.4955727141
H        1.3553712718   -2.3517860331    4.4134681436
H        2.6520573859   -1.1341848660    4.5290618390
H        0.9616984696   -0.6187860914    4.5392735695
H        1.3339543915    0.0340886191   -3.3156781388
H        0.9120966953    0.8323223922   -1.7971899334
19   

C        0.5489804597   -0.7298392462    0.5887153710
C        2.8251144201   -1.4634840488    0.5507811189
C        0.5818113849   -0.8164608431    1.9925572890
C        2.7981103646   -1.5314708562    1.9526211893
C        1.6894155486   -1.0497851109   -0.1579476132
C        1.6767117763   -1.0897704077   -1.6743369146
C        1.6870858445   -1.3201946831    4.1151442410
N        1.6895510649   -1.2156718417    2.6480906531
N        1.3504569205    0.0655163354   -2.3068449263
O        2.0606761799   -2.0493636879   -2.3115041406
H       -0.3686440361   -0.4413996747    0.0813247730
H        3.7160467995   -1.7584386963   -0.0011068428
H       -0.3173245180   -0.5716714064    2.5522639807
H        3.6915242574   -1.8653218142    2.4742971860
H        1.4423489399   -2.3426316571    4.4225625394
H        2.6687417600   -1.0523817496    4.5189758792
H        0.9514787995   -0.6350877264    4.5480860090
H        1.4279750317    0.0530098058   -3.3198550063
H        1.1743082930    0.9251871409   -1.8024607108
19   

C        0.5131956429   -0.7853518027    0.5900599198
C        2.8243023127   -1.4068748784    0.5321539838
C        0.5626379181   -0.8658360205    1.9932915234
C        2.8117838576   -1.4716337637    1.9348857692
C        1.6620386824   -1.0535442097   -0.1651374088
C        1.6181017617   -1.1039379735   -1.6807218320
C        1.7080827619   -1.3131922080    4.1064269278
N        1.6944552036   -1.2091871990    2.6393850523
N        1.5313937130    0.0847768965   -2.3243078096
O        1.7612717063   -2.1321196172   -2.3095589729
H       -0.4204450788   -0.5433257970    0.0872174647
H        3.7236775942   -1.6611540176   -0.0254892090
H       -0.3428159537   -0.6638752272    2.5598768117
H        3.7241119187   -1.7605308961    2.4506004209
H        1.5006327370   -2.3432861901    4.4157998191
H        2.6834190046   -1.0124880489    4.5022200888
H        0.9532967266   -0.6532215805    4.5454094978
H        1.5680979186    0.0472242190   -3.3389118984
H        1.5094107859    0.9668314103   -1.8277995619
19   

C        0.4518254305   -0.8326955226    0.6055454010
C        2.7928958230   -1.3347333649    0.5125247470
C        0.5247583122   -0.9134191519    2.0071801419
C        2.8017824579   -1.4028548019    1.9157292786
C        1.6020626343   -1.0457351341   -0.1658178352
C        1.5232931668   -1.0813211708   -1.6804713514
C        1.7195716171   -1.3082801136    4.1025564528
N        1.6815230601   -1.2007971127    2.6361785105
N        1.6867989800    0.0963651955   -2.3278136760
O        1.3407780979   -2.1048807042   -2.3061211107
H       -0.4983969585   -0.6358692772    0.1136992294
H        3.6983892013   -1.5376277331   -0.0554964007
H       -0.3821456451   -0.7582403712    2.5860605783
H        3.7342891073   -1.6442724035    2.4196249479
H        1.5546563324   -2.3462274022    4.4113244580
H        2.6884251343   -0.9729014491    4.4861207033
H        0.9469681931   -0.6778877277    4.5539040637
H        1.6432946889    0.0604194466   -3.3421722832
H        1.8565334715    0.9642941089   -1.8347199390
19   

C        0.3931385634   -0.8818916160    0.6274668863
C        2.7578306043   -1.2604636881    0.4993849271
C        0.4893424633   -0.9623469124    2.0271300467
C        2.7881703936   -1.3317632724    1.9027306946
C        1.5418869119   -1.0388317979   -0.1599579249
C        1.4265773757   -1.0511547745   -1.6722924499
C        1.7307674864   -1.3004780014    4.1043619516
N        1.6680994487   -1.1916801999    2.6389137537
N        1.8338877066    0.0633290987   -2.3254812437
O        0.9132625841   -1.9647304305   -2.2844129403
H       -0.5711566524   -0.7309575676    0.1461489571
H        3.6668624578   -1.4087547564   -0.0793049290
H       -0.4166425832   -0.8544347787    2.6180735286
H        3.7384700685   -1.5232019006    2.3947043939
H        1.6000182018   -2.3432171221    4.4133473310
H        2.6951485086   -0.9385777228    4.4747671764
H        0.9472803169   -0.6927690353    4.5679757409
H        1.7045152722    0.0639147850   -3.3331566892
H        2.1989756516    0.8719422806   -1.8376926665
19   

C        0.3518106705   -0.9386928560    0.6377288666
C        2.7327543262   -1.2001775669    0.4873486580
C        0.4628037240   -1.0275163379    2.0353585294
C        2.7764782649   -1.2831989342    1.8901308497
C        1.5007851523   -1.0331784360   -0.1593680248
C        1.3553691648   -1.0125911170   -1.6685540578
C        1.7354844344   -1.3185571051    4.1001320246
N        1.6563067182   -1.2045017793    2.6358750649
N        1.9901232788   -0.0074403715   -2.3222986621
O        0.6071063036   -1.7566016886   -2.2690046752
H       -0.6214776987   -0.8269228318    0.1628995915
H        3.6446222740   -1.2960002917   -0.0975551931
H       -0.4429159778   -0.9674706950    2.6334810430
H        3.7384045458   -1.4310782936    2.3744691289
H        1.6406457899   -2.3663353404    4.4050356516
H        2.6910848742   -0.9280241538    4.4641353421
H        0.9374155701   -0.7378197487    4.5734405964
H        1.8200879702    0.0492693958   -3.3223844282
H        2.5100296424    0.7105661622   -1.8337133975
19   

C        0.3184063248   -0.9777770014    0.6439296675
C        2.7087682914   -1.1328468882    0.4788249205
C        0.4397164841   -1.0876651319    2.0389026285
C        2.7617191481   -1.2399672890    1.8799549143
C        1.4666209824   -1.0034574849   -0.1592368842
C        1.2932275498   -0.9452966304   -1.6647278276
C        1.7332960295   -1.3522960456    4.0936830215
N        1.6425908877   -1.2222755225    2.6314145584
N        2.1196299037   -0.0970819657   -2.3325405549
O        0.3971295204   -1.5179684991   -2.2516582639
H       -0.6613799277   -0.8960596237    0.1755157181
H        3.6228596955   -1.1802122402   -0.1079818926
H       -0.4651705556   -1.0765621900    2.6411964459
H        3.7309480777   -1.3545596578    2.3587052934
H        1.6686779092   -2.4057967580    4.3863468619
H        2.6799846566   -0.9403618977    4.4574012640
H        0.9227612550   -0.7986408062    4.5782350752
H        1.9416453235   -0.0026151167   -3.3284813349
H        2.7598049579    0.5222409137   -1.8526041329
19   

C        0.2906643052   -1.0117295798    0.6577485480
C        2.6853308396   -1.0602911621    0.4798924298
C        0.4232131416   -1.1461475132    2.0492940743
C        2.7485088058   -1.1948500799    1.8784717258
C        1.4345688903   -0.9654566919   -0.1504500218
C        1.2291305677   -0.8766067200   -1.6517648908
C        1.7359820747   -1.3906551299    4.0939041704
N        1.6332647748   -1.2399171456    2.6344166324
N        2.1941727446   -0.2254026256   -2.3577727673
O        0.2351321713   -1.2922160852   -2.2139731945
H       -0.6956197987   -0.9590553342    0.1982840454
H        3.6009076678   -1.0593195398   -0.1054949073
H       -0.4787224735   -1.1857009305    2.6548224105
H        3.7235486976   -1.2777933720    2.3519000586
H        1.7146923736   -2.4504996379    4.3693581784
H        2.6670505132   -0.9470449047    4.4606997868
H        0.9063851497   -0.8775546556    4.5907585125
H        2.0119501898   -0.1232454186   -3.3522720655
H        2.9406517426    0.2877803724   -1.9083965829
19   

C        0.2747098674   -1.0570422231    0.6535228051
C        2.6698687503   -0.9836332439    0.4862569336
C        0.4085312132   -1.2197096718    2.0417055324
C        2.7333781891   -1.1497985009    1.8816355391
C        1.4172333481   -0.9317593144   -0.1484124152
C        1.1919696050   -0.8068594927   -1.6473013411
C        1.7223745012   -1.4427585652    4.0873740933
N        1.6189924657   -1.2677366249    2.6306341447
N        2.2464915644   -0.3744029988   -2.3936322456
O        0.1318563033   -1.0586452870   -2.1865527386
H       -0.7138462266   -1.0366077335    0.1960846861
H        3.5903483909   -0.9202154551   -0.0863601622
H       -0.4928943751   -1.3164740283    2.6415465979
H        3.7091100672   -1.1944967102    2.3587421472
H        1.7219142036   -2.5074925420    4.3439808112
H        2.6439263025   -0.9876689375    4.4639937411
H        0.8822093782   -0.9543994415    4.5914557453
H        2.0601986024   -0.2728340876   -3.3874806860
H        3.0955700067   -0.0113811271   -1.9836296475
19   

C        0.2849806638   -1.1327645467    0.6470202411
C        2.6717087641   -0.8957623788    0.4869007958
C        0.4307308772   -1.3424773626    2.0274709127
C        2.7459147649   -1.1125561875    1.8750671333
C        1.4177264141   -0.9065802578   -0.1474163771
C        1.1587426288   -0.6842814193   -1.6329146483
C        1.7550126145   -1.5422283196    4.0680799811
N        1.6420387870   -1.3343150395    2.6163371529
N        2.2353888489   -0.4622999018   -2.4305900043
O        0.0461926652   -0.6904642477   -2.1238585001
H       -0.7064594031   -1.1455755087    0.1955196196
H        3.5848721106   -0.7208136031   -0.0728954521
H       -0.4625816998   -1.5155818304    2.6222782236
H        3.7214273903   -1.1005183732    2.3545158215
H        1.8058336115   -2.6118233299    4.2975609737
H        2.6537214368   -1.0529716761    4.4569176404
H        0.8930129881   -1.1069746036    4.5840057911
H        2.0243753065   -0.3197466824   -3.4143804742
H        3.1880472256   -0.4644464070   -2.0961848557
