70

C     -1.04707    3.25750   -0.45444
C      0.00357    3.69293    0.37108
C     -1.30264    1.89751   -0.57420
C      0.78280    2.77893    1.07916
C     -0.51527    0.95871    0.11826
C      0.51754    1.41201    0.95426
C     -0.74324   -0.48711   -0.05434
C      0.36347   -1.41787    0.50117
C      0.83176   -0.81191    1.87148
C     -0.31212   -0.77279    2.89717
C      6.79735   -2.35181    5.14678
C      6.03523    1.23625    5.87555
C      2.35161    0.26005   -3.47582
C     -1.26226   -5.98263    0.33383
C      1.52210   -1.36232   -0.53505
C     -0.24649   -2.83525    0.60046
C      2.06646   -1.52406    2.45766
C      2.70299   -0.81207    3.66300
C      5.62175   -1.80728    5.94481
C      5.47131    0.42649    4.71670
C      4.02141   -1.50215    4.00603
C      1.16295   -1.83560   -1.94468
C      0.70245   -3.97851    0.97459
N      4.74586   -0.83258    5.16472
O     -1.70673   -0.93103   -0.66498
O      3.79995   -1.63128   -2.29187
O      2.35009   -2.26201   -4.30695
O      0.51172   -5.08313   -1.43235
O      1.34471   -6.50974    0.52697
O      1.31406    0.54791    1.65648
S      2.55394   -1.49411   -3.07403
S      0.43868   -5.48819   -0.01794
H     -1.65105    3.97976   -0.99480
H      0.20953    4.75537    0.46839
H     -2.10141    1.52430   -1.20809
H      1.58758    3.10830    1.72976
H     -0.02864   -0.15610    3.75334
H     -0.54434   -1.77784    3.25880
H     -1.22727   -0.34888    2.47875
H      6.48191   -2.86955    4.23794
H      7.51909   -1.57577    4.88221
H      7.31942   -3.08027    5.77261
H      5.26516    1.48301    6.61427
H      6.86236    0.73295    6.38047
H      6.42027    2.17952    5.47970
H      3.21005    0.52325   -4.09650
H      1.42484    0.38941   -4.03642
H      2.35279    0.85493   -2.56099
H     -1.43785   -6.88121   -0.26091
H     -1.35516   -6.20960    1.39702
H     -1.94422   -5.18974    0.02441
H      2.36268   -1.97300   -0.20530
H      1.90239   -0.33884   -0.56743
H     -0.67726   -3.03288   -0.38224
H     -1.09757   -2.82051    1.28484
H      1.78902   -2.53875    2.74750
H      2.82725   -1.60447    1.67844
H      2.86058    0.23756    3.40667
H      2.03417   -0.84901    4.53122
H      5.95584   -1.27954    6.83877
H      4.95253   -2.61006    6.26222
H      6.24839    0.10674    4.02209
H      4.73944    1.00862    4.15617
H      3.85010   -2.54029    4.29933
H      4.70954   -1.49799    3.15917
H      1.02540   -2.91924   -2.00876
H      0.28081   -1.35150   -2.37056
H      1.75124   -3.77318    0.75027
H      0.63282   -4.28954    2.01982
H      4.01991   -0.52745    5.82156
