24   
Generated by ForceBalance from scan.xyz: Frame 1 of 24
C        5.8373741834    0.8501278512    0.2342548890
C       -0.8088008738   -3.0963296860   -2.4264819503
C        5.3748331939    1.3284716006    1.4629064509
C       -1.8650841883   -3.1402353164   -1.5104500304
C        4.9422188094    0.1935435826   -0.6111338012
C        0.3092942884   -2.3102922763   -2.1563141891
C        4.0304392553    1.1281554944    1.7956435504
C       -1.7486202418   -2.3799219469   -0.3449520921
C        3.6193122723    0.0414649550   -0.1851135442
C        0.3217771717   -1.5934406635   -0.9462200390
C        2.6407153164   -0.6797751702   -1.0830181568
N        3.1658902566    0.4979174139    0.9938586163
N       -0.6844487768   -1.6205562963   -0.0592637811
N        1.3840079541   -0.7693666196   -0.5479254342
O        2.9911972500   -1.1423140642   -2.1689506130
H        6.8749689401    0.9870475051   -0.0586461310
H       -0.8539884514   -3.6676417960   -3.3502051669
H        6.0350700803    1.8456876287    2.1529526927
H       -2.7520585917   -3.7398631903   -1.6909813411
H        5.2333049269   -0.2017399787   -1.5782987611
H        1.1480603338   -2.2418424005   -2.8357287992
H        3.6344749872    1.4873565027    2.7437823957
H       -2.5450725957   -2.3777227508    0.3976458285
H        1.2773929283   -0.3548460404    0.3769910924
24   
Generated by ForceBalance from scan.xyz: Frame 2 of 24
C        5.8222632802    0.7121542779    0.2967637105
C       -0.7407105368   -3.1819186628   -2.3586216360
C        5.3426073835    1.1919656361    1.5183482670
C       -1.7497050335   -3.2678628338   -1.3932030184
C        4.9176674255    0.1576333403   -0.6093708586
C        0.3019223395   -2.2735563909   -2.1897855286
C        3.9718619914    1.0957685814    1.7828227029
C       -1.6638195482   -2.4236096093   -0.2845167714
C        3.5681881172    0.1016575370   -0.2471242514
C        0.2946164054   -1.4859900089   -1.0247779575
C        2.5801677625   -0.5211976670   -1.2060660759
N        3.0978098152    0.5616309174    0.9235914039
N       -0.6683624892   -1.5488691008   -0.0942526574
N        1.2918403335   -0.5401417379   -0.7298227253
O        2.9472009926   -0.9983761422   -2.2788865527
H        6.8803199409    0.7706303261    0.0554750696
H       -0.7671400175   -3.8127983386   -3.2434858985
H        6.0095158531    1.6319294477    2.2540639180
H       -2.5796650973   -3.9603635467   -1.4955979318
H        5.2213722819   -0.2320282974   -1.5749284698
H        1.0997689531   -2.1653793774   -2.9124038319
H        3.5616129765    1.4604960973    2.7227083451
H       -2.4275477128   -2.4475180273    0.4913042837
H        1.1857649147   -0.1278534231    0.1969966371
24   
Generated by ForceBalance from scan.xyz: Frame 3 of 24
C        5.7759288066    0.5538623027    0.3543543185
C       -0.6448422861   -3.2347056614   -2.2679286835
C        5.2767312924    1.0218962818    1.5727294325
C       -1.6028486157   -3.3382504817   -1.2529626465
C        4.8737167886    0.1218261129   -0.6182698747
C        0.3126765126   -2.2248214911   -2.2110518928
C        3.8910446142    1.0375035213    1.7673574945
C       -1.5540988195   -2.4091170230   -0.2124992213
C        3.5073983960    0.1674305074   -0.3222253582
C        0.2800770557   -1.3603127152   -1.1026286468
C        2.5195941996   -0.3355481300   -1.3489830356
N        3.0191750602    0.6185138200    0.8444140679
N       -0.6357611696   -1.4375826115   -0.1285962659
N        1.2056239379   -0.3114601358   -0.9242738570
O        2.8984968539   -0.7990689436   -2.4217164575
H        6.8460545871    0.5283820121    0.1664130323
H       -0.6482651141   -3.9285848115   -3.1047405469
H        5.9406092711    1.3688354653    2.3591815211
H       -2.3685022225   -4.1079127631   -1.2684309136
H        5.1919484214   -0.2505588482   -1.5859139991
H        1.0651445369   -2.0952791097   -2.9781468191
H        3.4662368393    1.3984697054    2.7021807437
H       -2.2829158545   -2.4422399841    0.5958584932
H        1.1026573387    0.1094368728    0.0001009828
24   
Generated by ForceBalance from scan.xyz: Frame 4 of 24
C        5.6962848053    0.3822824444    0.3941777665
C       -0.5121928155   -3.2623248325   -2.1553061175
C        5.1784284994    0.8242348290    1.6145624195
C       -1.4238319948   -3.3668329984   -1.0978871732
C        4.8126014542    0.0841108849   -0.6434032528
C        0.3531164042   -2.1728965325   -2.2117652022
C        3.7910215515    0.9502358415    1.7465560970
C       -1.4220574315   -2.3579096707   -0.1340909435
C        3.4413970593    0.2285827466   -0.4054164118
C        0.2838761179   -1.2312689666   -1.1699113380
C        2.4641667348   -0.1393796601   -1.4968765292
N        2.9353192545    0.6573737902    0.7619222211
N       -0.5880538945   -1.3088623965   -0.1581854677
N        1.1259304638   -0.0953345280   -1.1173885046
O        2.8541898586   -0.5622142662   -2.5797322975
H        6.7686052151    0.2747543024    0.2540921313
H       -0.4833671896   -4.0166133102   -2.9376014837
H        5.8290607757    1.0683177785    2.4492689893
H       -2.1198464430   -4.1969595254   -1.0252977469
H        5.1478771850   -0.2595031831   -1.6159234469
H        1.0616963084   -2.0377233691   -3.0194462899
H        3.3513111680    1.2967884454    2.6799272263
H       -2.1189973308   -2.3880929848    0.7020105157
H        1.0274082000    0.3439364321   -0.1999609808
24   
Generated by ForceBalance from scan.xyz: Frame 5 of 24
C        5.5826164109    0.2010288971    0.4015302047
C       -0.3344657460   -3.2808849802   -2.0234154126
C        5.0436272205    0.5993946339    1.6277151879
C       -1.2196885048   -3.3685352973   -0.9415362193
C        4.7269666665    0.0440925305   -0.6891664003
C        0.4328592981   -2.1317045375   -2.1904814705
C        3.6649499203    0.8252381116    1.7119087145
C       -1.2906928978   -2.2827423109   -0.0688946914
C        3.3603910939    0.2770346002   -0.4966188189
C        0.2985415441   -1.1117156054   -1.2320071632
C        2.4055168890    0.0550152042   -1.6450872063
N        2.8350522570    0.6659692757    0.6760925693
N       -0.5478160216   -1.1738063770   -0.1991335226
N        1.0435182053    0.0933086956   -1.3083112904
O        2.8120611939   -0.2865264480   -2.7472040648
H        6.6490135150    0.0191188581    0.2977654214
H       -0.2527895674   -4.0952047838   -2.7389593125
H        5.6718772993    0.7350128192    2.5032726399
H       -1.8411925135   -4.2445559220   -0.7831750119
H        5.0805972349   -0.2572969807   -1.6691476039
H        1.1126951226   -2.0075667043   -3.0252189812
H        3.2108091870    1.1434058569    2.6484759511
H       -1.9716318500   -2.2974418055    0.7807156089
H        0.9241030704    0.5658944224   -0.4095344725
24   
Generated by ForceBalance from scan.xyz: Frame 6 of 24
C        5.4639773511    0.0329157831    0.3829540546
C       -0.1036774532   -3.2763628241   -1.8571527141
C        4.8961520518    0.3547938741    1.6185359884
C       -0.9948640421   -3.3315798722   -0.7776427045
C        4.6452270607    0.0164321418   -0.7464236904
C        0.5686484871   -2.0891977653   -2.1304037940
C        3.5284753625    0.6482570124    1.6726054157
C       -1.1682195803   -2.1757290741   -0.0169054694
C        3.2851621644    0.3057583330   -0.5833438805
C        0.3354279115   -0.9935421632   -1.2796666537
C        2.3644701266    0.2369243012   -1.7767847457
N        2.7332288389    0.6225507738    0.5987037245
N       -0.5161942773   -1.0267724309   -0.2501500749
N        0.9749065178    0.2586758784   -1.4877286517
O        2.7958885234    0.0140886285   -2.8955038764
H        6.5229346605   -0.1975306720    0.3020044466
H        0.0555428942   -4.1469448480   -2.4884811108
H        5.4946297595    0.3810882083    2.5245573983
H       -1.5436303226   -4.2370828526   -0.5376183468
H        5.0231705024   -0.2192206900   -1.7353769206
H        1.2446831855   -1.9931471761   -2.9728076190
H        3.0543253990    0.9113126189    2.6163345233
H       -1.8586752410   -2.1642607448    0.8251398804
H        0.8269235244    0.7782018858   -0.6192475398
24   
Generated by ForceBalance from scan.xyz: Frame 7 of 24
C        5.6798520496    0.2015253286   -0.0384792114
C        0.1763688097   -3.3038291107   -0.5085324876
C        5.3233263380   -0.1622618663    1.2623898660
C       -1.1884631247   -3.2784799766   -0.8186103654
C        4.6680328273    0.3981903411   -0.9781546221
C        0.9278343927   -2.1368101007   -0.6069723532
C        3.9650643795   -0.3201111902    1.5634989293
C       -1.7357747189   -2.0619256760   -1.2248900395
C        3.3381911715    0.2206603425   -0.5735092371
C        0.2752077489   -0.9655648504   -1.0303038354
C        2.2460295770    0.4998686589   -1.5720476673
N        2.9868682858   -0.1384982471    0.6706299439
N       -1.0285615042   -0.9294137003   -1.3356034778
N        0.9136065271    0.2888240181   -1.1760672964
O        2.4957223583    1.0936171011   -2.6146963078
H        6.7232414956    0.3309406123   -0.3134374110
H        0.6538966528   -4.2262826464   -0.1877861421
H        6.0746021211   -0.3222401486    2.0305405639
H       -1.8061620862   -4.1686249757   -0.7514866813
H        4.8761276078    0.6933399135   -2.0008701916
H        1.9787552974   -2.1283739610   -0.3518051353
H        3.6512065109   -0.6045217822    2.5665809155
H       -2.7914915494   -1.9855687317   -1.4804695075
H        0.3149233135    0.8640912712   -1.7684113293
24   
Generated by ForceBalance from scan.xyz: Frame 8 of 24
C        5.6139285284    0.0623830414    0.0074416362
C        0.3185248393   -3.2736476963   -0.5636230307
C        5.1917866467   -0.2710683729    1.2966971888
C       -1.0764627439   -3.2582216575   -0.6763937027
C        4.6489651459    0.3351584123   -0.9625118272
C        1.0422765444   -2.1055293634   -0.7819358011
C        3.8168970791   -0.3223702574    1.5570861084
C       -1.6821325703   -2.0507387473   -1.0230732932
C        3.2985264820    0.2507719796   -0.6001858805
C        0.3285370692   -0.9383727410   -1.1063399291
C        2.2589104966    0.6102941984   -1.6296939924
N        2.8829470142   -0.0752408730    0.6331837019
N       -1.0047229694   -0.9150752632   -1.2357250550
N        0.9248025419    0.3150562957   -1.3583180195
O        2.5591219223    1.3062445526   -2.5953354306
H        6.6720249409    0.1130529721   -0.2352017930
H        0.8431169333   -4.1920225632   -0.3125369845
H        5.9051430560   -0.4863181240    2.0871821089
H       -1.6726476811   -4.1506616603   -0.5135219546
H        4.9100631521    0.6192828148   -1.9762777912
H        2.1213359915   -2.1041838515   -0.7069042546
H        3.4520441534   -0.5741121761    2.5516192560
H       -2.7626505086   -1.9850040417   -1.1407815570
H        0.3091242797    0.8728359370   -1.9471950806
24   
Generated by ForceBalance from scan.xyz: Frame 9 of 24
C        5.5291913942   -0.0029504899    0.0272187958
C        0.4256789484   -3.2353907445   -0.5900055257
C        5.0590089618   -0.3312692471    1.3011392540
C       -0.9737201718   -3.2287874358   -0.5621705986
C        4.6029128719    0.3282519328   -0.9623608106
C        1.1130197145   -2.0708165693   -0.9160763814
C        3.6774280991   -0.3176091408    1.5278652772
C       -1.6209088075   -2.0367082753   -0.8869596447
C        3.2415724844    0.2965086842   -0.6360812793
C        0.3612983432   -0.9145290678   -1.1897625135
C        2.2441753620    0.7141942711   -1.6863232023
N        2.7795916340   -0.0197007464    0.5831498101
N       -0.9778053759   -0.9026163728   -1.1936515253
N        0.9232772950    0.3274164946   -1.5417231687
O        2.5734808809    1.4991803013   -2.5729408663
H        6.5943910872    0.0008870435   -0.1881830407
H        0.9797863023   -4.1446840663   -0.3715120837
H        5.7412707030   -0.5898603831    2.1059537157
H       -1.5438434698   -4.1188213818   -0.3146386639
H        4.9034568799    0.6165260196   -1.9640575491
H        2.1940010055   -2.0660553681   -0.9678259972
H        3.2762519403   -0.5583825644    2.5110532352
H       -2.7082656654   -1.9826510085   -0.9052750268
H        0.2933166726    0.8770284158   -2.1208892868
24   
Generated by ForceBalance from scan.xyz: Frame 10 of 24
C        5.4426154335   -0.0376542033    0.0380030156
C        0.4716174546   -3.2197904372   -0.5860526000
C        4.9448900843   -0.3828144048    1.2970515310
C       -0.9236742730   -3.2108586438   -0.4720202959
C        4.5399648070    0.3359819599   -0.9583363931
C        1.1334945887   -2.0671300578   -0.9947161424
C        3.5609358999   -0.3417915084    1.5034223746
C       -1.5929327277   -2.0316415378   -0.7986308433
C        3.1732829546    0.3214814517   -0.6551318683
C        0.3643221293   -0.9191798563   -1.2537428651
C        2.2006290850    0.7837886508   -1.7102976033
N        2.6848459053   -0.0072800626    0.5502051446
N       -0.9720457499   -0.9072700294   -1.1799797665
N        0.9092458652    0.3015476452   -1.6913891143
O        2.5334666434    1.6513287749   -2.5160761303
H        6.5110657814   -0.0516435741   -0.1603101451
H        1.0393782420   -4.1221875984   -0.3742810341
H        5.6085737863   -0.6733936290    2.1064590480
H       -1.4758174860   -4.0919585740   -0.1600517639
H        4.8637641757    0.6429808901   -1.9472274768
H        2.2087017172   -2.0631238545   -1.1223648269
H        3.1391041900   -0.5906347489    2.4758876613
H       -2.6796388883   -1.9798924405   -0.7550698446
H        0.2646880117    0.8540668490   -2.2501282540
24   
Generated by ForceBalance from scan.xyz: Frame 11 of 24
C        5.4238296870   -0.0687520676    0.0465109011
C        0.5199735642   -3.2046732156   -0.5654712396
C        4.9098660971   -0.4381516555    1.2922753382
C       -0.8703807674   -3.1769851033   -0.4031964666
C        4.5352362772    0.3410773576   -0.9482483057
C        1.1756047957   -2.0731522190   -1.0378506032
C        3.5249996803   -0.3831077700    1.4866197084
C       -1.5401431891   -2.0031052553   -0.7475501072
C        3.1654384559    0.3329426423   -0.6596771442
C        0.4085979191   -0.9266279856   -1.3065916239
C        2.2058097014    0.8339604673   -1.7094313565
N        2.6616257032   -0.0164041219    0.5331803669
N       -0.9237320115   -0.8977763083   -1.1887810542
N        0.9565680000    0.2650560702   -1.8168892396
O        2.5266557491    1.7762546215   -2.4319293883
H        6.4939107785   -0.0905634259   -0.1421666819
H        1.0866804056   -4.1052535852   -0.3434949662
H        5.5621781611   -0.7564634534    2.1004956307
H       -1.4193658256   -4.0412231788   -0.0421564465
H        4.8735640205    0.6703206029   -1.9251097726
H        2.2456058915   -2.0815203701   -1.2059336176
H        3.0907092388   -0.6475455286    2.4494267105
H       -2.6241451600   -1.9396470745   -0.6682530819
H        0.2959966525    0.8288961164   -2.3446911837
24   
Generated by ForceBalance from scan.xyz: Frame 12 of 24
C        4.9388724687    1.0854018505   -0.5466491069
C       -0.4214074422   -0.7880599665   -1.7770577111
C        3.9549521245    1.8543109119    0.0807456632
C       -1.5254402760   -1.4471263981   -1.2221994973
C        4.7790606178   -0.3000722203   -0.5910667161
C        0.8597558616   -1.2481229948   -1.4951282766
C        2.8494391456    1.2004682670    0.6357103845
C       -1.2829905467   -2.5604348051   -0.4182415932
C        3.6196804472   -0.8511327266   -0.0329969324
C        0.9914113368   -2.3464842418   -0.6290266461
C        3.4670666788   -2.3513587822   -0.0228382633
N        2.6710278979   -0.1240773324    0.5751187554
N       -0.0539035091   -3.0071558366   -0.1214984148
N        2.2408738161   -2.9147381851   -0.3051626226
O        4.4369373737   -3.0630976138    0.2302916655
H        5.8168309502    1.5547164273   -0.9826164838
H       -0.5584114892    0.0640906162   -2.4377408578
H        4.0401896855    2.9351804302    0.1476733560
H       -2.5418311961   -1.1224129767   -1.4227838010
H        5.5238680271   -0.9530347804   -1.0340420370
H        1.7312878218   -0.7817130546   -1.9388392064
H        2.0723001805    1.7650904844    1.1483309072
H       -2.1085116992   -3.1255019651    0.0112661148
H        2.1796089628   -3.8878498192   -0.0166343403
24   
Generated by ForceBalance from scan.xyz: Frame 13 of 24
C        4.9518714371    1.0925309971   -0.5475485914
C       -0.4293260627   -0.8287141694   -1.7879165501
C        3.9861089074    1.8567767497    0.1125454120
C       -1.5419305585   -1.4984137408   -1.2642412394
C        4.7803703309   -0.2906965374   -0.6147834397
C        0.8492158623   -1.2599375169   -1.4528721067
C        2.8862037547    1.2000769406    0.6761654316
C       -1.3079570646   -2.5949367116   -0.4349548973
C        3.6291301725   -0.8444922802   -0.0427245445
C        0.9699491030   -2.3446292065   -0.5671054440
C        3.4682357843   -2.3437232767   -0.0588964105
N        2.6973482888   -0.1216329580    0.5962288536
N       -0.0834618441   -3.0151504098   -0.0875806086
N        2.2090599753   -2.8878264971   -0.1795497191
O        4.4522828769   -3.0679785096    0.0821295828
H        5.8245582361    1.5636202907   -0.9920766287
H       -0.5564221329    0.0110709438   -2.4661972557
H        4.0802182531    2.9356680086    0.1974312184
H       -2.5557680514   -1.1949781297   -1.5065049312
H        5.5101236811   -0.9414926098   -1.0849616281
H        1.7250597366   -0.7819485966   -1.8743529140
H        2.1226344226    1.7610467889    1.2126375441
H       -2.1381543214   -3.1686863697   -0.0263553694
H        2.1619775895   -3.8668150122    0.0890011789
24   
Generated by ForceBalance from scan.xyz: Frame 14 of 24
C        4.9938170859    1.0930679636   -0.5446392133
C       -0.4727637314   -0.8428147098   -1.8157778621
C        4.0516905168    1.8697584617    0.1344718186
C       -1.5878661754   -1.5386446868   -1.3337848340
C        4.7852340814   -0.2835849965   -0.6364363465
C        0.8027236358   -1.2359409804   -1.4255257105
C        2.9365800134    1.2323882554    0.6911080354
C       -1.3588489587   -2.6229046209   -0.4869938248
C        3.6246708773   -0.8184577085   -0.0646246722
C        0.9165991553   -2.3140051409   -0.5303741677
C        3.4272032515   -2.3125237469   -0.1080311565
N        2.7142741157   -0.0823468099    0.5902463224
N       -0.1390719702   -3.0079135334   -0.0882946536
N        2.1466364943   -2.8219348905   -0.0745248753
O        4.4009000707   -3.0632666435   -0.0755897276
H        5.8759042540    1.5494352673   -0.9859391492
H       -0.5940307900   -0.0100351750   -2.5037334525
H        4.1743543381    2.9441042330    0.2383738229
H       -2.5985383432   -1.2636774224   -1.6192048523
H        5.4931552449   -0.9451232138   -1.1244784498
H        1.6793920102   -0.7330465086   -1.8139368235
H        2.1893883442    1.8039186986    1.2393915478
H       -2.1893250811   -3.2158634147   -0.1072467521
H        2.1119927736   -3.8091474565    0.1646512222
24   
Generated by ForceBalance from scan.xyz: Frame 15 of 24
C        5.0793293533    1.1020263640   -0.5299294474
C       -0.5175130499   -0.8776731651   -1.8223328093
C        4.1582724215    1.8985743295    0.1548427730
C       -1.6164836707   -1.6298662713   -1.3914348369
C        4.8264143550   -0.2654231338   -0.6441502866
C        0.7585875434   -1.2072955922   -1.3776224864
C        3.0183888143    1.2897562387    0.6937485705
C       -1.3695589402   -2.7036377320   -0.5362223779
C        3.6483469548   -0.7721208536   -0.0819227063
C        0.8896296813   -2.2860510854   -0.4854558247
C        3.4055946897   -2.2581851961   -0.1515978755
N        2.7563149476   -0.0158254827    0.5755573955
N       -0.1502202161   -3.0303841880   -0.0882989081
N        2.1190810466   -2.7327447425    0.0355099252
O        4.3540249952   -3.0360319724   -0.2312380351
H        5.9779498312    1.5362683857   -0.9600170116
H       -0.6504331999   -0.0471272018   -2.5108861052
H        4.3145249379    2.9668369995    0.2751658751
H       -2.6264330779   -1.4040458604   -1.7192866272
H        5.5129349921   -0.9423832306   -1.1413907879
H        1.6220587303   -0.6532372665   -1.7223995109
H        2.2844756355    1.8780375787    1.2422755625
H       -2.1850732127   -3.3372187506   -0.1910581070
H        2.1035438596   -3.7267217251    0.2504163620
24   
Generated by ForceBalance from scan.xyz: Frame 16 of 24
C        5.1941512212    1.1275497613   -0.5438702979
C       -0.6256892009   -0.8876213911   -1.7956672257
C        4.3086980430    1.9636676197    0.1405694829
C       -1.6716905004   -1.7521615737   -1.4530279758
C        4.8728830332   -0.2239236659   -0.6729939363
C        0.6515129326   -1.1145719441   -1.2924518981
C        3.1337807911    1.4086046197    0.6623335545
C       -1.3715936734   -2.8283370062   -0.6182693667
C        3.6692941988   -0.6780113069   -0.1186750226
C        0.8384175241   -2.2184988420   -0.4419756526
C        3.3554567512   -2.1493100605   -0.2005808006
N        2.8091953459    0.1181844385    0.5343763387
N       -0.1502403143   -3.0639877001   -0.1216853254
N        2.0733819983   -2.5754632520    0.1389872437
O        4.2547024570   -2.9644570048   -0.3844961875
H        6.1167242928    1.5195270723   -0.9636644117
H       -0.8005251117   -0.0426644564   -2.4568237636
H        4.5174375781    3.0215984951    0.2720433868
H       -2.6799801493   -1.6055459843   -1.8275551830
H        5.5260736685   -0.9297114470   -1.1748195129
H        1.4714684501   -0.4599751637   -1.5554829614
H        2.4232890551    2.0296217168    1.2055866627
H       -2.1430589191   -3.5417748664   -0.3327120641
H        2.0735652575   -3.5708473322    0.3538513305
24   
Generated by ForceBalance from scan.xyz: Frame 17 of 24
C        5.3359002926    1.0748152889   -0.4906635403
C       -0.7689204282   -0.9144482996   -1.7423427156
C        4.4814373863    1.9681148232    0.1601985734
C       -1.7291487190   -1.9094127582   -1.5242521996
C        4.9273151107   -0.2500964746   -0.6426936952
C        0.4946965358   -1.0386660808   -1.1729845599
C        3.2485987484    1.4946224628    0.6253508186
C       -1.3614471860   -3.0000085815   -0.7368425387
C        3.6758639736   -0.6245649061   -0.1353722345
C        0.7599775856   -2.1819938683   -0.3987949311
C        3.2674932249   -2.0702188480   -0.2410209990
N        2.8442991753    0.2285084290    0.4819354113
N       -0.1480027899   -3.1438794621   -0.1874438863
N        1.9977329234   -2.4388044506    0.2370608871
O        4.0925964386   -2.9282008713   -0.5326817657
H        6.3000506581    1.4034927011   -0.8693373997
H       -1.0026519082   -0.0434832044   -2.3494829556
H        4.7568238753    3.0086459567    0.3069073139
H       -2.7253655386   -1.8451932345   -1.9506843573
H        5.5479769660   -0.9961984836   -1.1269199878
H        1.2448900673   -0.2718885443   -1.3103794676
H        2.5571641579    2.1632723057    1.1356378878
H       -2.0680636054   -3.8039607229   -0.5367374947
H        2.0218580076   -3.4342983244    0.4575942588
24   
Generated by ForceBalance from scan.xyz: Frame 18 of 24
C        4.9529429200    1.3204289728   -0.2828233626
C       -0.5817228050   -2.0706654946   -2.4847008609
C        4.3327316536    1.7690835482    0.8862543787
C       -1.6173693754   -1.7612449551   -1.5934213115
C        4.6317124305    0.0518470109   -0.7661840063
C        0.6819121774   -2.3740951578   -1.9875722064
C        3.4149494596    0.9266553546    1.5246723767
C       -1.3273004790   -1.7727076327   -0.2294471572
C        3.6860598809   -0.7058307556   -0.0648491649
C        0.8660620427   -2.3292084437   -0.5937459181
C        3.2750583869   -2.0566326201   -0.5967591525
N        3.0909918299   -0.2848545768    1.0624321449
N       -0.1121882969   -2.0428978047    0.2707485912
N        2.1217095217   -2.6300949404    0.0001904773
O        3.8088136517   -2.5371587060   -1.5823410437
H        5.6731812444    1.9453806596   -0.8041240974
H       -0.7609615532   -2.0885192704   -3.5568007362
H        4.5518751949    2.7488749359    1.3006597985
H       -2.6183730825   -1.5268660323   -1.9423510525
H        5.0805988701   -0.3588868413   -1.6640612392
H        1.5044294196   -2.6477763209   -2.6390917749
H        2.9193470363    1.2398835660    2.4416766170
H       -2.1010622152   -1.5508149852    0.5040090773
H        2.0459035353   -2.2926591144    0.9626776713
24   
Generated by ForceBalance from scan.xyz: Frame 19 of 24
C        5.1313109286    1.3323648987   -0.1812747091
C       -0.7207118796   -2.3158639703   -2.5233603046
C        4.5796429695    1.7586992221    1.0297959525
C       -1.7699467523   -1.9852836958   -1.6564037834
C        4.6912007361    0.1291681316   -0.7334295164
C        0.5651437901   -2.4752876699   -2.0150079965
C        3.6064293683    0.9602805894    1.6414449022
C       -1.4706623072   -1.8285850356   -0.3031810981
C        3.7002852276   -0.5872956897   -0.0524635444
C        0.7539587211   -2.2648156833   -0.6376193005
C        3.1631968727   -1.8618900336   -0.6580978895
N        3.1696362636   -0.1879547008    1.1143184154
N       -0.2367599865   -1.9586315110    0.2060520568
N        2.0278018454   -2.3941617930   -0.0257925738
O        3.6038506676   -2.2936397799   -1.7143200788
H        5.8913001773    1.9252426331   -0.6832367816
H       -0.9051759279   -2.4620215623   -3.5846779128
H        4.8928095318    2.6880856063    1.4965237428
H       -2.7875513874   -1.8615375859   -2.0140842334
H        5.0811549028   -0.2613859737   -1.6670698909
H        1.4033400706   -2.7548304103   -2.6424037297
H        3.1596675055    1.2567407057    2.5886339595
H       -2.2531338153   -1.5828515195    0.4131274044
H        1.9435228832   -1.9947558318    0.9117967947
24   
Generated by ForceBalance from scan.xyz: Frame 20 of 24
C        5.3243905817    1.3189567865   -0.0894628594
C       -0.8075444594   -2.5184826633   -2.5393074293
C        4.8160880056    1.7365895509    1.1434376975
C       -1.8801025756   -2.2176235356   -1.6912192220
C        4.7688920002    0.1943505034   -0.7002508963
C        0.4899213060   -2.5173089328   -2.0339599892
C        3.7680359282    1.0078393033    1.7167671097
C       -1.5937270012   -1.9253705087   -0.3572767779
C        3.7132255261   -0.4559889739   -0.0519112424
C        0.6609091582   -2.1808357538   -0.6795371570
C        3.0614384005   -1.6436136283   -0.7200321200
N        3.2220583470   -0.0649215669    1.1348790162
N       -0.3524994632   -1.9018418705    0.1481342427
N        1.9347339518   -2.1323208594   -0.0654017210
O        3.4412438890   -2.0406259049   -1.8162122264
H        6.1397301782    1.8586888620   -0.5637718511
H       -0.9804638659   -2.7649319229   -3.5838768447
H        5.2183699856    2.6059966326    1.6552327994
H       -2.9057567231   -2.2175523031   -2.0473787802
H        5.1184654268   -0.1850823493   -1.6542438364
H        1.3495298924   -2.7626468679   -2.6451798558
H        3.3500544256    1.2994736800    2.6784668618
H       -2.3939177842   -1.6953499882    0.3444980371
H        1.8387465357   -1.6994533167    0.8553318943
24   
Generated by ForceBalance from scan.xyz: Frame 21 of 24
C        5.4934978076    1.2650834140   -0.0129079447
C       -0.8630166820   -2.6852734221   -2.5516301836
C        5.0149367570    1.6812169406    1.2322847378
C       -1.9588895589   -2.4414946330   -1.7159936698
C        4.8302261969    0.2313430238   -0.6747942547
C        0.4291934033   -2.5182817930   -2.0594422378
C        3.8886490775    1.0434897832    1.7642917816
C       -1.7025092239   -2.0352453231   -0.4054739174
C        3.7065452592   -0.3341321846   -0.0631387855
C        0.5666549662   -2.0819924013   -0.7298577568
C        2.9526651897   -1.4261711953   -0.7856954872
N        3.2419446334    0.0574160643    1.1342416225
N       -0.4699618714   -1.8550066738    0.0870718472
N        1.8207239313   -1.8604828038   -0.1242305397
O        3.2981667951   -1.8055430920   -1.9018886021
H        6.3666452817    1.7356957498   -0.4570660978
H       -1.0116088534   -3.0136298991   -3.5772212744
H        5.4988203228    2.4814628585    1.7846185021
H       -2.9797045416   -2.5685596141   -2.0633190679
H        5.1490397128   -0.1424710487   -1.6416960337
H        1.3081776574   -2.7073890837   -2.6619778758
H        3.4899313586    1.3387028992    2.7330666779
H       -2.5212012149   -1.8419794368    0.2859780037
H        1.7090724051   -1.4176659662    0.7888254316
24   
Generated by ForceBalance from scan.xyz: Frame 22 of 24
C        5.6344069745    1.1851679924    0.0524736676
C       -0.8820471252   -2.8256879144   -2.5424204558
C        5.1766835647    1.6097599001    1.3025821345
C       -1.9936087878   -2.6534812723   -1.7103904263
C        4.8818126728    0.2477960786   -0.6559070332
C        0.3876672172   -2.4890937444   -2.0784862756
C        3.9795923784    1.0762339119    1.7929589613
C       -1.7753087546   -2.1428402472   -0.4294101330
C        3.6955526548   -0.2192169804   -0.0813335524
C        0.4854706470   -1.9666757211   -0.7765407410
C        2.8551504524   -1.2137751370   -0.8483266121
N        3.2486386431    0.1816686814    1.1199015450
N       -0.5672828506   -1.8033916277    0.0372284222
N        1.7043092141   -1.5790170289   -0.1932623462
O        3.1838543976   -1.5943235953   -1.9710445006
H        6.5603228307    1.5764288401   -0.3607078346
H       -0.9996155223   -3.2271104844   -3.5457775665
H        5.7294063959    2.3373228703    1.8897470169
H       -2.9964291277   -2.9106206377   -2.0376637784
H        5.1790613792   -0.1256546238   -1.6298440988
H        1.2772619146   -2.6119759358   -2.6817829865
H        3.5928737639    1.3817432512    2.7634373630
H       -2.6066724287   -1.9964113568    0.2584452313
H        1.5846747142   -1.1326691466    0.7159624366
24   
Generated by ForceBalance from scan.xyz: Frame 23 of 24
C        5.7410819508    1.0926057857    0.1090578604
C       -0.8678649170   -2.9475288813   -2.5032784026
C        5.2938804214    1.5323641813    1.3576432924
C       -1.9785631691   -2.8544158436   -1.6580228428
C        4.9214639636    0.2457825443   -0.6380735302
C        0.3631586067   -2.4459013016   -2.0862234466
C        4.0396518459    1.1050108958    1.8076608478
C       -1.7995860090   -2.2515697851   -0.4111981679
C        3.6840016364   -0.1214421262   -0.1009178322
C        0.4240867871   -1.8511205567   -0.8130835033
C        2.7784796532   -1.0267380238   -0.9037535689
N        3.2459960972    0.2962309192    1.0980895781
N       -0.6298942636   -1.7579686404    0.0117575615
N        1.5959127033   -1.3030780527   -0.2722167558
O        3.1062327996   -1.4319971165   -2.0192677761
H        6.7096198975    1.4034142982   -0.2736605306
H       -0.9555893506   -3.4116940103   -3.4823389070
H        5.8976221808    2.1918738622    1.9741917490
H       -2.9515092713   -3.2375169459   -1.9503903836
H        5.2061966603   -0.1335331539   -1.6134892221
H        1.2500447381   -2.4986342765   -2.7030468424
H        3.6586282924    1.4266234246    2.7752183406
H       -2.6323245325   -2.1580022478    0.2842042553
H        1.4776992394   -0.8592763690    0.6375815861
24   
Generated by ForceBalance from scan.xyz: Frame 24 of 24
C        5.7995552791    0.9823934886    0.1669264134
C       -0.8512963693   -3.0312658021   -2.4686823238
C        5.3498892506    1.4424765727    1.4072637222
C       -1.9439264071   -3.0149464333   -1.5955024853
C        4.9322902530    0.2280969938   -0.6242563271
C        0.3281869392   -2.3790414810   -2.1158594911
C        4.0459840837    1.1275089406    1.8057971975
C       -1.7994373684   -2.3320553048   -0.3859717606
C        3.6485486559   -0.0325620971   -0.1358387675
C        0.3596158302   -1.7232875704   -0.8718191181
C        2.6975154928   -0.8480438781   -0.9811598553
N        3.2077904968    0.4056113553    1.0549315213
N       -0.6789522629   -1.6976660002   -0.0223258136
N        1.4778046938   -1.0295382697   -0.3912700765
O        3.0343963709   -1.2837253566   -2.0828580290
H        6.8059659844    1.2074084815   -0.1760824614
H       -0.9139470366   -3.5492938471   -3.4223097243
H        5.9896305721    2.0327616362    2.0567780856
H       -2.8773183807   -3.5129678940   -1.8397198986
H        5.2153047755   -0.1604209654   -1.5965587543
H        1.1979409547   -2.3648340628   -2.7584791121
H        3.6616186822    1.4688442614    2.7652610234
H       -2.6204239450   -2.2898487717    0.3281613112
H        1.3619762571   -0.6016627764    0.5259826019
