41

C      1.07131    0.09355    5.84091
C      0.00673   -0.58812    5.23855
C      2.38338   -0.21305    5.46889
C      0.25291   -1.55910    4.26513
C      2.62636   -1.18412    4.49154
C      1.56734   -1.86030    3.87392
C      0.95461   -2.62197    1.53842
C      1.83178    0.64622    1.65998
C     -0.36314   -0.07912   -0.40793
C      2.36124   -0.62390    0.96771
C      0.47310   -1.36540   -0.48968
C      0.09743    2.49667    1.51595
C      1.17771    1.70136    0.74586
C      0.50443    1.17340   -0.53290
C      1.81773   -2.87887    2.77747
N     -0.71343    3.25314    0.54135
N      1.31972   -1.61042    0.67787
O     -0.04528   -3.31713    1.34256
O     -1.77764    2.32500   -1.61520
O      0.44667    3.54558   -1.76282
S     -0.46442    2.65423   -1.04203
H      0.87937    0.85070    6.59659
H     -1.01649   -0.36342    5.52918
H      3.21773    0.30437    5.93559
H     -0.57566   -2.08177    3.79333
H      3.65084   -1.40985    4.20216
H      1.12550    0.32966    2.43023
H      2.66107    1.12223    2.19356
H     -1.08556   -0.09083   -1.23005
H     -0.94296   -0.07403    0.52069
H      2.86460   -0.37390    0.02620
H      3.11703   -1.08177    1.60384
H     -0.19057   -2.22317   -0.58487
H      1.11326   -1.32771   -1.38088
H     -0.53396    1.80244    2.08308
H      0.56784    3.18459    2.22426
H      1.94560    2.40962    0.41848
H      1.23089    1.05379   -1.34082
H      2.88210   -2.91645    2.52971
H      1.52487   -3.87566    3.11587
H     -1.71237    3.23536    0.73323
