38

C     -8.53013    4.68553    0.27232
C     -7.17287    4.36757    0.23308
C     -9.33681    4.26356    1.33382
C     -7.39446    3.21205    2.36319
C     -3.20699    2.37034    1.27199
C     -6.61298    3.62321    1.27808
C     -8.75215    3.53047    2.36737
C     -3.15008    3.73032    0.83350
C     -4.56187    2.15584    1.50911
C     -2.06214    1.48189    1.40060
C      0.24950   -0.04314    1.80300
C     -1.28587   -1.56263    2.95553
C      1.25577   -1.19511    1.77477
C     -0.22823   -2.65150    2.83896
C     -1.93695    4.51653    0.44022
N     -4.35496    4.29174    0.80658
N     -2.18331    0.27334    1.83774
N     -5.22527    3.32427    1.23359
N     -1.11087   -0.57423    1.88581
O      1.08570   -2.09325    2.86358
Cl    -9.74006    3.01015    3.72274
Cl    -5.37251    0.70783    1.95773
H     -8.97090    5.26195   -0.53609
H     -6.53973    4.69158   -0.58494
H    -10.39507    4.50153    1.36297
H     -6.95802    2.67156    3.19373
H     -1.10796    1.91368    1.09077
H      0.45608    0.63568    2.64875
H      0.36744    0.52388    0.87396
H     -2.28987   -1.98274    2.85923
H     -1.20758   -1.07906    3.94252
H      1.15556   -1.73926    0.82296
H      2.27299   -0.80211    1.84764
H     -0.29209   -3.33779    3.68674
H     -0.37329   -3.22080    1.90802
H     -1.41693    4.05168   -0.40488
H     -2.23336    5.52677    0.15000
H     -1.22337    4.58960    1.26833
