41

C     -3.80273   -4.94503    3.62160
C     -4.25566   -3.62828    3.76398
C     -2.43204   -5.19291    3.50538
C     -3.34468   -2.56988    3.78823
C     -1.52310   -4.12972    3.52746
C     -1.96717   -2.80897    3.66898
C     -1.41772   -0.45124    2.85976
C     -0.98695    1.37194    0.10903
C     -0.43590   -1.46285   -0.51677
C     -2.10767    0.48388    0.72659
C     -1.19311   -1.82879    0.76794
C      1.51357    1.81573   -0.18432
C      0.43439    0.85582    0.37897
C      0.73724   -0.51745   -0.26187
C     -0.98667   -1.65173    3.70446
N      1.66678    1.58915   -1.63320
N     -1.60050   -0.63845    1.51410
O     -1.62254    0.64521    3.38981
O      0.67732   -0.32662   -3.02801
O      2.91260   -0.67972   -1.85322
S      1.56775   -0.10292   -1.87939
H     -4.51151   -5.76867    3.60153
H     -5.31976   -3.42643    3.85707
H     -2.06924   -6.21167    3.39518
H     -3.70329   -1.54904    3.89952
H     -0.45774   -4.33211    3.43365
H     -1.15667    1.46950   -0.96962
H     -1.05872    2.37773    0.53339
H     -0.06921   -2.38873   -0.97169
H     -1.11120   -1.01940   -1.25160
H     -2.73018    1.08451    1.38768
H     -2.74959    0.07301   -0.05765
H     -2.07132   -2.43331    0.50703
H     -0.55899   -2.44954    1.39821
H      1.25770    2.86416   -0.01773
H      2.48079    1.62628    0.29049
H      0.57173    0.78198    1.46065
H      1.52893   -1.02145    0.29906
H     -0.89473   -1.26059    4.72070
H      0.01039   -1.99232    3.40439
H      0.90789    2.01006   -2.16926
