47

C      4.56938   -0.30724   -6.79348
C      1.45943   -1.86593   -8.08601
C      0.80228   -2.21160   -6.89808
C      2.69949   -1.23921   -8.01589
C      1.37835   -1.93286   -5.66223
C      4.33657   -0.43889   -3.75609
C      4.25800   -0.49343   -2.33015
C      3.28996   -0.95380   -6.77115
C      2.63406   -1.29801   -5.55976
C      3.18810   -1.02580   -4.24190
C      3.07511   -1.10712   -2.01870
C      0.49650    1.84843    1.23783
C      0.77413    1.95647   -0.28518
C     -1.24279   -0.02313    1.14106
C      1.26699   -0.55438    1.23164
C     -0.49801   -0.06483   -1.19461
C      0.14413    0.40990    1.65254
C      0.89247    0.56596   -0.92765
C     -2.84842   -0.08152   -0.64619
C      2.37795   -1.41767   -0.73435
N      5.60876    0.21847   -6.84780
N     -1.52144    0.36000   -0.24095
N      1.80539   -0.23351   -0.09654
O      2.41500   -1.43610   -3.17357
H      1.01072   -2.08272   -9.05082
H     -0.16673   -2.70211   -6.93679
H      3.23071   -0.96100   -8.92095
H      0.85880   -2.20556   -4.75095
H      5.14157   -0.02005   -4.34025
H      4.98127   -0.11485   -1.62035
H      1.38456    2.15850    1.79948
H     -0.31580    2.52247    1.52751
H     -0.02348    2.51422   -0.78195
H      1.71448    2.48874   -0.45554
H     -1.35026   -1.11693    1.29059
H     -2.00899    0.45397    1.76443
H      2.08851   -0.50453    1.95976
H      0.87634   -1.58656    1.26843
H     -0.83341    0.25777   -2.18667
H     -0.40623   -1.16815   -1.24211
H      0.08555    0.35923    2.74641
H      1.38256    0.67772   -1.89804
H     -3.07621    0.29481   -1.64884
H     -3.59876    0.31840    0.04410
H     -2.95418   -1.18406   -0.66151
H      1.62968   -2.20658   -0.93236
H      3.10445   -1.84521   -0.03367
