18

C     -1.93245    3.95915   -0.58056
C     -1.41992    3.34065    0.56258
C     -3.30997    4.12218   -0.74614
C     -3.67579    3.03830    1.40567
C     -2.28883    2.87633    1.56228
C     -4.16282    3.65630    0.25849
C     -1.75694    2.21029    2.77605
N     -2.46130    2.28654    3.86046
N     -0.51171    1.60476    2.69370
O     -1.81667    1.56239    4.90557
Br    -6.05944    3.85908    0.03985
H     -1.25563    4.32498   -1.34796
H     -0.34612    3.24925    0.69350
H     -3.71244    4.59928   -1.63366
H     -4.34622    2.67628    2.17638
H     -0.31299    1.15039    1.81046
H     -0.28915    1.03320    3.50193
H     -2.41832    1.70084    5.65348
