69

C      8.41632    2.55711   -4.92397
C      8.30579    2.05230   -3.62416
C      7.49721    3.50626   -5.38675
C     -8.92114   -7.32574   -0.22829
C     -1.01747    0.33207   -0.41072
C      0.66926    3.56808   -1.09693
C      1.36021    1.93920    0.55614
C      7.28766    2.50525   -2.78248
C      6.47256    3.95200   -4.55242
C     -7.93666   -6.38736   -0.53664
C     -2.25096   -0.30366   -0.51487
C      1.88802    4.23103   -0.97067
C      2.58578    2.58852    0.69238
C     -2.10674    2.46965   -0.61699
C    -10.22820   -7.09131   -0.66984
C     -9.63478   -5.11975   -1.67083
C      0.38596    2.41915   -0.33739
C     -0.92324    1.73499   -0.46081
C      6.36814    3.46250   -3.24123
C     -3.36091    1.85741   -0.72230
C     -8.29530   -5.25095   -1.27050
C     -3.40786    0.46031   -0.67007
C      2.83396    3.72678   -0.07675
C      5.25017    3.99267   -2.40306
C     -4.62579    2.67585   -0.87670
C     -5.86467    1.84979   -0.51495
C     -5.76347    0.48618   -1.18902
C     -6.93671   -0.42633   -0.85093
C     -7.52579   -2.90906   -0.81221
C     -7.27991   -4.18773   -1.61718
N    -10.58557   -6.01273   -1.38243
N      5.40963    3.84802   -1.02317
N     -6.62568   -1.81920   -1.33427
O      4.24430    4.50602   -2.87543
O      4.99866    4.16379    1.39958
O      4.18846    5.99450   -0.18371
O     -4.61439   -0.24504   -0.73787
O     -7.34265   -3.74289   -2.98118
S      4.38520    4.58974    0.14053
H      9.21350    2.20872   -5.57513
H      9.00900    1.30469   -3.26806
H      7.58131    3.89747   -6.39685
H     -8.68588   -8.22291    0.33573
H     -0.11742   -0.26753   -0.31523
H     -0.05869    3.93577   -1.81433
H      1.14565    1.07619    1.17974
H      7.19952    2.07689   -1.78740
H      5.74662    4.68262   -4.89483
H     -6.90796   -6.54108   -0.21628
H     -2.32353   -1.38733   -0.48374
H      2.11742    5.10956   -1.56200
H      3.32876    2.24117    1.40320
H     -2.06134    3.55590   -0.62206
H    -11.02144   -7.80163   -0.44583
H     -9.94939   -4.26308   -2.26672
H     -4.57481    3.56590   -0.24350
H     -4.71108    3.03399   -1.91002
H     -5.92165    1.70259    0.56936
H     -6.77973    2.35850   -0.83528
H     -5.68881    0.61763   -2.27978
H     -7.86579   -0.09848   -1.31964
H     -7.07266   -0.48908    0.23061
H     -7.32434   -3.04852    0.25050
H     -8.55329   -2.56753   -0.94715
H     -6.27108   -4.56644   -1.39526
H      6.31326    3.60692   -0.62526
H     -6.66930   -1.87389   -2.36290
H     -5.64165   -1.99372   -1.07900
H     -7.32867   -4.51031   -3.57758
