74

C      3.82890    1.94653   -2.28528
C      3.18230    1.05082   -1.42366
C      1.99583    3.48173   -2.06464
C      1.35612    2.59216   -1.20572
C      3.24898    3.17404   -2.61972
C      1.93619    1.35623   -0.87476
C      3.24438    4.08517   -4.99981
C     -0.15722   -0.01059   -0.43965
C      2.90105    5.54253   -5.29866
C      0.20948   -1.16751   -1.35526
C      3.89740    4.16208   -3.58523
C      1.22782    0.39955    0.08832
C      5.42081    4.04080   -3.65649
C      1.19510    0.98567    1.50311
C      3.97182    8.13593   -3.84524
C      1.34322   -3.65962   -2.21070
C      0.23145    7.45252   -2.88486
C      2.17425    7.47504   -1.29517
C      1.60448    9.52428   -2.62642
C      4.33591   -2.48657    0.02209
C      2.51382   -4.02256    0.82430
C      3.87795   -4.58580   -1.20616
C      2.56151    7.52235   -3.84008
C      2.16516   -2.69583   -1.33733
C      1.65906    7.98382   -2.65422
C      3.20402   -3.43906   -0.42141
N      2.55350    6.04900   -3.96803
N      1.19359   -1.90766   -0.55353
O      3.64271    5.51786   -3.13719
O      1.94131   -0.85092    0.16997
H      4.79867    1.66767   -2.68606
H      3.65217    0.10839   -1.16841
H      1.52900    4.42773   -2.31674
H      0.39054    2.86972   -0.78783
H      2.33827    3.47788   -4.96676
H      3.92512    3.65147   -5.73648
H     -0.67321    0.79540   -0.96296
H     -0.78402   -0.36353    0.38473
H      3.75953    6.06701   -5.74578
H      2.03525    5.65167   -5.95768
H     -0.64288   -1.81424   -1.57178
H      0.62938   -0.79123   -2.30258
H      5.81095    4.80555   -4.33375
H      5.72897    3.06177   -4.03311
H      5.86724    4.19275   -2.66986
H      0.71167    0.28108    2.18579
H      0.64748    1.93281    1.51818
H      2.21270    1.17662    1.85533
H      4.49366    7.96020   -2.90353
H      3.91743    9.21293   -4.02084
H      4.58350    7.70490   -4.64241
H      0.74248   -4.33781   -1.59674
H      1.99839   -4.25544   -2.84617
H      0.66854   -3.11666   -2.87582
H     -0.19163    7.84851   -3.81664
H      0.22298    6.36205   -2.95027
H     -0.42824    7.75670   -2.06449
H      3.18506    7.83631   -1.08227
H      2.20107    6.38479   -1.25615
H      1.51931    7.83469   -0.49296
H      2.56351    9.96503   -2.33864
H      0.85819    9.86054   -1.89835
H      1.32142    9.93466   -3.60376
H      4.85085   -2.06096   -0.84834
H      3.96286   -1.66678    0.63384
H      5.08093   -3.04248    0.60320
H      1.69363   -4.69593    0.55365
H      2.10168   -3.23048    1.45292
H      3.23668   -4.59710    1.41527
H      3.19198   -5.41130   -1.41605
H      4.70701   -4.99351   -0.61822
H      4.29425   -4.23511   -2.15860
H      2.04810    7.85734   -4.75158
H      2.72832   -2.02591   -2.01048
