55

C      0.08618    0.87824   -3.07686
C     -1.24909    1.00974   -2.65439
C      1.01821    0.30643   -2.22200
C     -1.64435    0.58685   -1.38812
C      0.63878   -0.13699   -0.94070
C     -0.69872    0.01796   -0.52641
C      1.61146   -0.80454   -0.06038
C     -0.12316   -0.51755    1.72875
C      1.03501   -1.41630    1.23000
C     -1.61468    4.00384    3.58259
C      4.41949   -2.03607    4.58665
C     -0.13939   -6.08189    1.00571
C      0.30233    0.86265    2.24129
C      2.16521   -1.52359    2.27114
C      0.45117   -2.81166    0.86269
C     -0.43711    3.09764    3.20814
C     -0.88476    1.75823    2.61167
C      1.74753   -2.21101    3.57314
C      1.50110   -3.81565    0.39272
O      2.79773   -0.93343   -0.35062
O      2.58566   -0.16170    5.04441
O      2.31325   -2.44587    6.16446
O     -0.22331   -4.86901   -1.35753
O      1.87174   -6.19872   -0.72513
O     -1.13308   -0.39391    0.69678
S      2.70831   -1.63089    5.00487
S      0.76477   -5.30233   -0.35551
H      0.38103    1.21480   -4.06624
H     -1.98521    1.45295   -3.32004
H      2.05414    0.17417   -2.51928
H     -2.66957    0.69191   -1.04630
H     -0.66414   -1.03399    2.52733
H     -2.23270    4.23211    2.70644
H     -1.26835    4.95368    4.00343
H     -2.26016    3.52496    4.32792
H      5.01845   -1.70551    5.43731
H      4.50856   -3.11610    4.45861
H      4.71248   -1.49633    3.68560
H     -0.53262   -7.01539    0.59867
H      0.55052   -6.29172    1.82496
H     -0.95958   -5.43567    1.32022
H      0.92829    0.72212    3.12867
H      0.92733    1.36802    1.49500
H      2.52991   -0.51846    2.48915
H      3.00443   -2.05245    1.81653
H     -0.30140   -2.69513    0.07959
H     -0.07221   -3.20078    1.74352
H      0.18186    2.91127    4.09482
H      0.20870    3.61534    2.48669
H     -1.52472    1.23319    3.33418
H     -1.50481    1.93822    1.72665
H      0.72635   -1.97400    3.88364
H      1.84595   -3.29945    3.55082
H      2.12838   -3.41691   -0.40956
H      2.15944   -4.17473    1.18775
