56

C      6.44701   -1.74886    2.12250
C      7.03968   -1.40121    3.32099
C     12.65235   -4.56525    3.62084
C     12.15637   -3.10191    5.51333
C     11.30755   -4.94796    3.57847
C     10.81343   -3.48994    5.46606
C      3.37406   -1.02656   -1.36364
C      2.22974   -2.48008    0.18451
C      7.23419   -4.00061    2.33178
C      6.53622   -3.05871    1.58672
C      4.58604   -1.65827   -1.04389
C      3.42805   -3.11880    0.50479
C      4.63188   -2.71571   -0.11471
C      7.79378   -2.33480    4.13321
C      2.18181   -1.43380   -0.75212
C     13.04325   -3.64858    4.59199
C     10.40326   -4.41158    4.49718
C      7.83127   -3.66803    3.56296
C      1.30300    0.26571   -3.20611
C      5.84290   -1.16200   -1.73399
C      3.42382   -4.23634    1.52529
C      1.35556    1.49885   -0.90414
C     -0.76155    0.46830   -1.78348
C      5.93521   -3.41565    0.23093
C      0.76150    0.34423   -1.71350
O      8.36344   -1.99653    5.21784
O      0.89365   -0.72105   -3.86598
O      2.04577    1.22355   -3.56480
O      8.68252   -6.16930    3.57580
O      8.22752   -5.09750    5.83039
O      0.94632   -0.90560   -0.97456
F     14.36206   -3.27213    4.64292
S      8.67425   -4.95210    4.43037
H      5.87891   -1.00024    1.57177
H      6.95731   -0.38751    3.70881
H     13.38366   -4.96357    2.92329
H     12.51166   -2.38123    6.24441
H     10.95079   -5.66629    2.84705
H     10.06950   -3.06626    6.13077
H      3.36633   -0.23089   -2.09985
H      1.29880   -2.78238    0.65910
H      7.32504   -5.02450    1.97663
H      6.62766   -0.90176   -1.01424
H      6.26234   -1.91960   -2.40835
H      5.62269   -0.27497   -2.33391
H      3.75317   -5.18659    1.08483
H      4.10580   -4.02411    2.35507
H      2.41918   -4.38870    1.93214
H      0.92308    1.51372    0.10542
H      1.14050    2.44354   -1.40955
H      2.44035    1.41892   -0.82012
H     -1.19914    0.48937   -0.77653
H     -1.15847   -0.38339   -2.34055
H     -1.03413    1.38994   -2.30958
H      6.67096   -3.20830   -0.55405
H      5.78406   -4.50221    0.20380
