29   

C        3.0827047017   -2.8217957183    0.6819695352
C        2.4556822451   -1.6310189808    0.3063193282
C        2.8673841070   -3.3459156562    1.9592512317
C        1.6121740474   -0.9684504791    1.2051902973
C        2.0308506712   -2.6772640638    2.8600251983
C       -0.1577455380   -4.4163158958    5.7023313247
C       -0.0377629355   -5.6847753691    5.1287148523
C       -1.3789152027   -3.6781668974    3.7571546824
C        1.3909331718   -1.4815425091    2.4939293585
C       -0.8177603955   -3.3955087669    5.0108846984
C       -0.5735511933   -5.9593796962    3.8638638857
C       -1.2571975113   -4.9434943397    3.1715083849
C        0.5091501165   -0.7873169015    3.4275816395
C        0.3878060838   -0.8933446838    4.8032310948
O       -2.2147205651   -1.0958469325    5.3467310554
O       -0.6358618575   -1.7070659628    7.1429247201
S       -0.9261336337   -1.7117408648    5.7003690675
Cl      -0.3814028135   -7.5553166510    3.1717057558
Cl      -1.9480779620   -5.2292138683    1.5886826167
H        3.7341603312   -3.3369854554   -0.0152438706
H        2.6234239132   -1.2193712551   -0.6826577880
H        3.3487118797   -4.2719103860    2.2528812366
H        1.1350887321   -0.0447518207    0.8964620016
H        1.8740173671   -3.0979706128    3.8466505257
H        0.2668474545   -4.2216927070    6.6844558709
H        0.4794986567   -6.4709219801    5.6661321439
H       -1.9104914685   -2.9003092366    3.2159656593
H       -0.1567239055   -0.0574498013    2.9776258076
H        1.1756153118   -0.5074176674    5.4304764770
29   

C        2.8590988361   -3.1018710904    0.8812190978
C        2.1717215331   -1.9876134094    0.3940684818
C        2.8006769365   -3.4115593991    2.2421173250
C        1.4214274289   -1.1898079497    1.2652012926
C        2.0565932295   -2.6081294016    3.1130894827
C       -0.0688331567   -4.3959113792    5.5513999282
C        0.1165861241   -5.6109789794    4.8865658018
C       -1.2398889286   -3.5466501797    3.6210021754
C        1.3501342919   -1.4909951026    2.6357523453
C       -0.7338049065   -3.3440527823    4.9132750857
C       -0.3570750254   -5.8005199346    3.5818456026
C       -1.0493385866   -4.7559332843    2.9432812032
C        0.5415697750   -0.6668667387    3.5329816962
C        0.3628656861   -0.7591282830    4.8918645275
O       -2.2272562734   -1.1359436516    5.4094053011
O       -0.6265092282   -1.8002068931    7.1584496163
S       -0.9112073709   -1.7173103522    5.7170195953
Cl      -0.0762986423   -7.3270232245    2.7733964675
Cl      -1.6611622613   -4.9340062013    1.3129146378
H        3.4361486460   -3.7235045307    0.2055815977
H        2.2177125025   -1.7422156484   -0.6610802238
H        3.3314659685   -4.2762485192    2.6239588842
H        0.8911581204   -0.3322844896    0.8658583186
H        2.0251476528   -2.8634919056    4.1657686669
H        0.3117834480   -4.2653247098    6.5616812234
H        0.6393447255   -6.4205059485    5.3821262821
H       -1.7747156874   -2.7452624750    3.1191706160
H        0.0258682997    0.1667531448    3.0667193936
H        0.9931104523   -0.1870322194    5.5544734397
29   

C        2.7120406790   -3.3434085138    1.1798142729
C        1.8927417816   -2.3836121245    0.5806415355
C        2.8500366114   -3.3665641507    2.5695483856
C        1.2056809954   -1.4550851676    1.3707140933
C        2.1641002024   -2.4362487650    3.3579079012
C        0.0649012114   -4.3430088063    5.2749193453
C        0.2755017569   -5.4850237883    4.4977041208
C       -1.2184143272   -3.3827355626    3.4726389086
C        1.3233561206   -1.4752888117    2.7703028578
C       -0.6666435399   -3.2694205807    4.7570599934
C       -0.2374113824   -5.5786699372    3.1975291211
C       -1.0001214415   -4.5158450401    2.6811918651
C        0.5569883417   -0.5315974344    3.5915111066
C        0.3097579057   -0.6052979790    4.9287815607
O       -2.2253324759   -1.1870355081    5.5220839633
O       -0.5132978579   -1.9181661668    7.1198084233
S       -0.8679583327   -1.7244330323    5.7045950168
Cl       0.0841290506   -7.0092547339    2.2423629440
Cl      -1.6615977831   -4.5743656856    1.0616107734
H        3.2391390546   -4.0672954192    0.5682602322
H        1.7850126205   -2.3621066118   -0.4980376546
H        3.4863499618   -4.1084678880    3.0382934124
H        0.5665469583   -0.7245889924    0.8872346698
H        2.2813248410   -2.4698081409    4.4351247583
H        0.4803328949   -4.2839117124    6.2779723045
H        0.8518449864   -6.3097934477    4.8994534424
H       -1.8061062730   -2.5654808228    3.0648735600
H        0.1763115135    0.3500588322    3.0856386135
H        0.7146105474    0.1417892834    5.5935889003
29   

C        2.6383026459   -3.4113005655    1.2928373717
C        1.8111996722   -2.4788443109    0.6619199239
C        2.8051113732   -3.3638869512    2.6789176774
C        1.1445491224   -1.5075669835    1.4172634866
C        2.1382312536   -2.3917171766    3.4325756247
C        0.0749105888   -4.3635870150    5.1655005031
C        0.2886593358   -5.4891637936    4.3660524480
C       -1.2221363531   -3.3755115415    3.3883745010
C        1.2882190430   -1.4597054698    2.8135285382
C       -0.6651248196   -3.2838768022    4.6721014497
C       -0.2293514276   -5.5605712785    3.0667668478
C       -1.0002520739   -4.4921683476    2.5742254199
C        0.5491190935   -0.4630326373    3.6015159598
C        0.1777163589   -0.5370859577    4.9009296734
O       -2.2813187351   -1.3051948193    5.5729210118
O       -0.4672474050   -1.9894262063    7.0582289256
S       -0.8888016516   -1.7705383933    5.6650201126
Cl       0.0950873690   -6.9714584903    2.0837336888
Cl      -1.6694873603   -4.5246734290    0.9571741637
H        3.1496869805   -4.1681443031    0.7084502089
H        1.6819218851   -2.5115414614   -0.4141113149
H        3.4489263791   -4.0832946068    3.1718093928
H        0.4999668973   -0.7976117269    0.9109405615
H        2.2775245203   -2.3676975555    4.5076476334
H        0.4922175901   -4.3230443648    6.1687117825
H        0.8703877980   -6.3184254863    4.7503806376
H       -1.8184228140   -2.5550907648    3.0003640941
H        0.3117643392    0.4650493308    3.0911474549
H        0.3754599014    0.3024276651    5.5494970213
29   

C        3.1676538681   -3.5334462238    1.9163636934
C        2.1351563919   -3.0602526265    1.1019227398
C        3.3175245324   -3.0282938905    3.2105818707
C        1.2538767218   -2.0843670568    1.5812670147
C        2.4326547336   -2.0566453199    3.6904316792
C        0.1842476145   -4.2671269412    4.4960818826
C        0.0636550231   -5.2718877695    3.5353411041
C       -1.7897350712   -3.2031774116    3.6097785419
C        1.3863902772   -1.5765131221    2.8832335265
C       -0.7305687122   -3.2087662548    4.5275260345
C       -0.9714973989   -5.2471560091    2.5941901501
C       -1.9149878477   -4.2036156881    2.6368353823
C        0.4412454624   -0.5694488990    3.3935683275
C        0.0186328725   -0.4506164304    4.6670491825
O       -1.7868683688   -1.4782321409    6.3419826351
O        0.5429036986   -2.1440267160    6.6846079871
S       -0.5093428163   -1.8299401467    5.7032337407
Cl      -1.0656422798   -6.5071849609    1.3833769795
Cl      -3.2294613598   -4.1239117262    1.4840691027
H        3.8518793973   -4.2879157506    1.5442464637
H        2.0152443809   -3.4509855335    0.0976472623
H        4.1200608163   -3.3872760048    3.8452957387
H        0.4535667689   -1.7334647894    0.9392778162
H        2.5618376466   -1.6742834765    4.6983378364
H        1.0067270290   -4.2957363793    5.2064248462
H        0.7894509765   -6.0757958986    3.5080177501
H       -2.5197409883   -2.3994763478    3.6348166778
H        0.0786712173    0.1633540106    2.6798959534
H       -0.2216007571    0.5206639971    5.0713855990
29   

C        3.1551146286   -3.5512157906    1.9809248098
C        2.1284484739   -3.0785930397    1.1586896990
C        3.3188388708   -3.0182606700    3.2623957863
C        1.2672690569   -2.0753314857    1.6175695391
C        2.4533927556   -2.0195560727    3.7218812361
C        0.1933127658   -4.2720061845    4.4212813708
C        0.0500172530   -5.2761066426    3.4631455064
C       -1.7967686358   -3.2031854745    3.5784971411
C        1.4135482124   -1.5401628956    2.9068730432
C       -0.7192079364   -3.2124673851    4.4743682938
C       -1.0055615139   -5.2492259433    2.5451854434
C       -1.9451867104   -4.2031673955    2.6081443027
C        0.4914195913   -0.4965766593    3.3940130478
C       -0.0667401049   -0.4280106557    4.6129763685
O       -1.7228729496   -1.5482876139    6.3760141851
O        0.6447349844   -2.1316469417    6.5668173311
S       -0.4748764917   -1.8412608197    5.6546260127
Cl      -1.1298678699   -6.5100412110    1.3378926627
Cl      -3.2846545871   -4.1209167088    1.4846958159
H        3.8242434142   -4.3265500605    1.6246066835
H        1.9975746394   -3.4905511208    0.1643171180
H        4.1169758638   -3.3762725492    3.9032007023
H        0.4714816630   -1.7235852098    0.9704184210
H        2.5929241274   -1.6145942910    4.7195921866
H        1.0308159841   -4.3028997690    5.1137488115
H        0.7733839956   -6.0815216413    3.4203959205
H       -2.5245534872   -2.3982611389    3.6195191542
H        0.2407903382    0.2911437165    2.6908091265
H       -0.4495028779    0.5116029519    4.9809126328
29   

C        3.1275711190   -3.5690428856    2.0181366681
C        2.1015648834   -3.0810679027    1.2039874929
C        3.3176009108   -3.0296325706    3.2934494149
C        1.2679353036   -2.0556990732    1.6646966755
C        2.4790377057   -2.0088948747    3.7547798850
C        0.2037202324   -4.2808645497    4.4061165247
C        0.0622445940   -5.2909268208    3.4539563650
C       -1.7950323227   -3.2273239065    3.5650701905
C        1.4412729649   -1.5138681593    2.9476182170
C       -0.7149051159   -3.2266636558    4.4578236802
C       -0.9970611238   -5.2748651640    2.5400532228
C       -1.9417387533   -4.2332598860    2.6006253886
C        0.5488647022   -0.4412576017    3.4356859218
C       -0.1477296657   -0.4286973687    4.5801756972
O       -1.7123647845   -1.5977879706    6.3909870789
O        0.6770386333   -2.1087513728    6.5122640939
S       -0.4769931785   -1.8506471920    5.6335721607
Cl      -1.1197430446   -6.5434317930    1.3407294318
Cl      -3.2859636508   -4.1642953846    1.4819330347
H        3.7756172842   -4.3613879050    1.6603089061
H        1.9498053588   -3.4979463658    0.2146452668
H        4.1151019453   -3.3998041086    3.9280848582
H        0.4723817384   -1.6907360864    1.0245899729
H        2.6371859291   -1.5986976422    4.7475695471
H        1.0439160947   -4.3033956955    5.0955995585
H        0.7897261103   -6.0926889874    3.4129606894
H       -2.5268573894   -2.4260473117    3.6041052392
H        0.4154266865    0.4061006259    2.7708476578
H       -0.6436490295    0.4749322326    4.9000975535
29   

C        1.9929509132   -3.0252091340    0.8731625516
C        1.0931114872   -1.9558515203    0.8726498169
C        2.7099207208   -3.3288092990    2.0337720060
C        0.9060532404   -1.1967880761    2.0332353093
C        2.5258540337   -2.5647939259    3.1917433035
C       -0.2611894738   -3.9911352211    5.4253913102
C        0.1592850654   -5.2871380992    5.1152569747
C       -0.9294688617   -3.6838788600    3.1295108592
C        1.6157291648   -1.4970033359    3.2072990660
C       -0.7924957727   -3.1691195053    4.4270581942
C        0.0484653236   -5.7902070747    3.8127791651
C       -0.5110397217   -4.9802659740    2.8086201137
C        1.4060280251   -0.7056417971    4.4417799888
C        0.2770703249   -0.6177839738    5.1553639018
O       -1.9174152804   -0.8275146620    3.6143771596
O       -2.1290477803   -1.3929742033    5.9856428622
S       -1.2765517802   -1.4461422823    4.7877277856
Cl       0.6084520163   -7.4105947981    3.4612422398
Cl      -0.6806523016   -5.5581499219    1.1647373860
H        2.1322389373   -3.6191961960   -0.0233481484
H        0.5353240185   -1.7155450664   -0.0256319147
H        3.4058194701   -4.1601378968    2.0374915224
H        0.2000920847   -0.3719122444    2.0222340558
H        3.0830354454   -2.8146167203    4.0875853131
H       -0.1653954148   -3.6185464126    6.4415547925
H        0.5815604356   -5.9155639316    5.8902905793
H       -1.3527824880   -3.0623526044    2.3454103553
H        2.2841226406   -0.2118295062    4.8453300212
H        0.2489755174   -0.0137715708    6.0492745501
29   

C        2.0058660692   -3.0173964997    0.8419778575
C        1.0975144252   -1.9562507898    0.8807617280
C        2.7354166970   -3.3488424078    1.9869294294
C        0.9136151443   -1.2341073157    2.0649819103
C        2.5541824515   -2.6220801024    3.1691645780
C       -0.2803907360   -3.9695836943    5.4410528321
C        0.1474846667   -5.2670951848    5.1477146382
C       -0.9390238719   -3.6917469754    3.1385428869
C        1.6336162947   -1.5642902764    3.2254498053
C       -0.8098097172   -3.1612052644    4.4306061917
C        0.0462057741   -5.7851265791    3.8503006585
C       -0.5121533771   -4.9893108488    2.8342873069
C        1.4256990953   -0.8172853644    4.4828525855
C        0.2570139186   -0.5880982184    5.0975551352
O       -1.9577073942   -0.8389873465    3.5931112077
O       -2.1332705337   -1.3617554520    5.9757350328
S       -1.2969987932   -1.4340557103    4.7674585603
Cl       0.6168242936   -7.4061873568    3.5195960464
Cl      -0.6689021416   -5.5856111027    1.1957585645
H        2.1428650785   -3.5826640985   -0.0732559732
H        0.5310464311   -1.6930098659   -0.0056071807
H        3.4390870730   -4.1731633040    1.9595092964
H        0.2028324764   -0.4135345389    2.0812734473
H        3.1216218907   -2.8949234322    4.0517308746
H       -0.1910923742   -3.5847992779    6.4532927285
H        0.5687483423   -5.8848144959    5.9318560721
H       -1.3611720609   -3.0812378994    2.3451809063
H        2.3212956662   -0.4531586565    4.9758575291
H        0.2095917587    0.1021313553    5.9258516834
29   

C        2.0454127347   -3.0038596742    0.8246834096
C        1.1179174770   -1.9606051617    0.8843992918
C        2.7789556068   -3.3465126128    1.9637078503
C        0.9186685145   -1.2678613957    2.0834585821
C        2.5821197496   -2.6495394619    3.1613483917
C       -0.2970603592   -3.9445751594    5.4543968132
C        0.1417118866   -5.2390967955    5.1638138452
C       -0.9605261474   -3.6784292610    3.1517667061
C        1.6419007246   -1.6102842881    3.2391436890
C       -0.8334334103   -3.1430317364    4.4421143334
C        0.0447859581   -5.7607910263    3.8674865031
C       -0.5216170154   -4.9724880418    2.8500817185
C        1.4140846867   -0.9000541771    4.5103590949
C        0.2256777130   -0.5425296280    5.0241797964
O       -2.0413553700   -0.8477057677    3.6165107451
O       -2.1177148208   -1.3336652907    6.0120098488
S       -1.3288064744   -1.4169174453    4.7729807657
Cl       0.6309752240   -7.3768872848    3.5397657384
Cl      -0.6725244550   -5.5731229895    1.2126223791
H        2.1945128377   -3.5462225615   -0.1024376129
H        0.5486790662   -1.6883612763    0.0025243491
H        3.4979802330   -4.1567413208    1.9195901978
H        0.1930813827   -0.4607712711    2.1143085460
H        3.1530162650   -2.9324672417    4.0384695089
H       -0.2103352700   -3.5563278547    6.4656019144
H        0.5687796280   -5.8513856148    5.9490736745
H       -1.3888494794   -3.0737979879    2.3571828181
H        2.2985529848   -0.6430932728    5.0842761404
H        0.1707708998    0.2408615323    5.7644290193
29   

C        2.1004507543   -3.0168034196    0.8191623955
C        1.1511823510   -1.9935996417    0.8806741307
C        2.8271235291   -3.3591091613    1.9626327007
C        0.9235396011   -1.3204719409    2.0857400278
C        2.6015343121   -2.6822634623    3.1667794947
C       -0.3173977116   -3.9387860735    5.4486818322
C        0.1291771001   -5.2253706347    5.1359279814
C       -1.0182708845   -3.6513027274    3.1595557714
C        1.6397857365   -1.6628277964    3.2464335943
C       -0.8752063987   -3.1298668211    4.4538763447
C        0.0191231085   -5.7316875761    3.8345647778
C       -0.5704314721   -4.9368845011    2.8354471460
C        1.3773105948   -0.9788394459    4.5233383938
C        0.1853130969   -0.5072739618    4.9364785143
O       -2.1748747056   -0.8581579970    3.7068373945
O       -2.0681482239   -1.3279571000    6.1051945033
S       -1.3724491886   -1.4097516955    4.8113919302
Cl       0.6184257004   -7.3367791560    3.4778736785
Cl      -0.7375965334   -5.5181500216    1.1926421955
H        2.2717691952   -3.5438064692   -0.1129597282
H        0.5871813806   -1.7220671703   -0.0047664271
H        3.5632158053   -4.1537636091    1.9167856612
H        0.1804135241   -0.5295813951    2.1172300740
H        3.1674364402   -2.9661847329    4.0467805639
H       -0.2192905052   -3.5615967890    6.4631348184
H        0.5735440535   -5.8429824981    5.9073055830
H       -1.4643026032   -3.0412661353    2.3789615833
H        2.2311490292   -0.8112291470    5.1718000107
H        0.1350025194    0.3730628181    5.5585782294
29   

C        2.2159815598   -3.0960849627    0.8618809300
C        1.2201573463   -2.1165923831    0.8824425339
C        2.9349300970   -3.3793403393    2.0261204571
C        0.9388628893   -1.4281621187    2.0673543403
C        2.6543710629   -2.6882086020    3.2104843461
C       -0.2940516352   -3.9445761216    5.4073775752
C        0.1525197950   -5.2094913362    5.0174066562
C       -1.1472660823   -3.5834661795    3.1810159838
C        1.6462131362   -1.7119363057    3.2490636939
C       -0.9270381385   -3.1086892567    4.4819920224
C       -0.0313521549   -5.6672634603    3.7066303717
C       -0.6984087869   -4.8469228912    2.7790894583
C        1.3243839411   -1.0170007913    4.5043598840
C        0.1282838398   -0.4729685229    4.8271813230
O       -2.3860001193   -0.8648612476    3.9773402293
O       -1.8971350121   -1.3594614902    6.3247345343
S       -1.4112127850   -1.4088173065    4.9367836589
Cl       0.5745720776   -7.2440781787    3.2493433001
Cl      -0.9582679283   -5.3679263167    1.1282709295
H        2.4296049059   -3.6344754016   -0.0548626086
H        0.6620445453   -1.8915584133   -0.0195529507
H        3.7080933600   -4.1392115872    2.0116352661
H        0.1606613392   -0.6716181991    2.0670765496
H        3.2155920347   -2.9270287619    4.1067085091
H       -0.1357892963   -3.6033011222    6.4271013995
H        0.6562898555   -5.8467533791    5.7343832505
H       -1.6530880719   -2.9524148940    2.4556242767
H        2.1360062227   -0.8841811881    5.2123515284
H        0.0776265117    0.5151997897    5.2575663470
29   

C        2.6769528809   -3.3423008674    1.2095419161
C        1.4367112517   -2.7072683756    1.1136491111
C        3.4648404261   -3.1557057623    2.3481321491
C        0.9840386241   -1.8921575496    2.1566485633
C        3.0073346179   -2.3449824517    3.3934402574
C       -0.1473043669   -3.9494778891    4.9855041331
C        0.1562913419   -5.1446149334    4.3320085433
C       -1.7287876103   -3.4167048741    3.2438810181
C        1.7560300269   -1.7111318615    3.3170730880
C       -1.0746683047   -3.0604209829    4.4313785270
C       -0.4659190488   -5.4830376765    3.1249739686
C       -1.4286442936   -4.6132604393    2.5794631043
C        1.2673555624   -0.8976570741    4.4350585254
C        0.0007845896   -0.4420834512    4.6481393599
O       -2.6472965878   -0.8558690897    4.7481416116
O       -1.3129641664   -1.5648043913    6.6815700775
S       -1.3825302856   -1.4441575034    5.2166551981
Cl      -0.0303276469   -6.9743879061    2.3196068769
Cl      -2.2405231776   -4.9904797168    1.0758171703
H        3.0269975661   -3.9755217006    0.4017956460
H        0.8223645220   -2.8475478217    0.2312645176
H        4.4307170506   -3.6426581280    2.4223902843
H        0.0209565476   -1.4034786523    2.0621985359
H        3.6298284327   -2.2185148149    4.2722153795
H        0.3543561354   -3.6998257809    5.9168005350
H        0.8921663632   -5.8169376925    4.7567562954
H       -2.4690001171   -2.7470170295    2.8145685791
H        2.0120117279   -0.5756476198    5.1559928327
H       -0.2001918737    0.6177691815    4.6289011461
29   

C        3.0106099543   -3.2112023820    1.1642685092
C        1.6684284513   -2.8281284301    1.1084068487
C        3.7865684776   -2.8578719181    2.2710476390
C        1.1046979850   -2.0933534253    2.1570351459
C        3.2185882969   -2.1300531313    3.3230280052
C       -0.2837916982   -3.9985079260    4.9701364071
C       -0.1003240272   -5.2144148100    4.3105051467
C       -1.9591201205   -3.3868321738    3.3459314991
C        1.8688635228   -1.7415967136    3.2828036226
C       -1.2007499074   -3.0626486160    4.4792520406
C       -0.8324446683   -5.5261972556    3.1592916890
C       -1.7799081673   -4.6043589610    2.6756111616
C        1.2769913305   -1.0028857039    4.3975854594
C       -0.0020855130   -0.5246148487    4.5430945662
O       -2.6424675495   -0.7913246532    4.9279901319
O       -1.1428570705   -1.5483857304    6.7284071299
S       -1.3654795570   -1.4326158144    5.2783610517
Cl      -0.5520609328   -7.0505775286    2.3465873548
Cl      -2.7258153458   -4.9465763143    1.2435778528
H        3.4485163928   -3.7786967472    0.3505343074
H        1.0618544564   -3.0998953113    0.2516984171
H        4.8300765337   -3.1491085378    2.3150470511
H        0.0634004335   -1.8006215914    2.0918684234
H        3.8368558555   -1.8688779026    4.1747701226
H        0.2999710905   -3.7726738117    5.8589017127
H        0.6248557814   -5.9257146543    4.6879877257
H       -2.6910840264   -2.6788615082    2.9663927831
H        1.9466467442   -0.7687141307    5.2190444796
H       -0.2404901201    0.4817960520    4.2367366548
29   

C        3.4365492018   -2.9928041939    1.0959569101
C        2.0396925637   -2.9561437121    1.1021385787
C        4.1498832749   -2.4219846231    2.1532315461
C        1.3587972316   -2.3449562012    2.1608873144
C        3.4670164034   -1.8190313010    3.2157470212
C       -0.4924767191   -4.1049134119    4.9853551885
C       -0.4781476389   -5.3502583209    4.3554559113
C       -2.1911693297   -3.3611432133    3.4421961314
C        2.0632571542   -1.7704198418    3.2319095748
C       -1.3390588472   -3.0920180071    4.5221492130
C       -1.3103746850   -5.6133116023    3.2612298056
C       -2.1821877982   -4.6078714175    2.8023942838
C        1.3546585436   -1.1353721192    4.3402092845
C        0.0527815110   -0.6746322947    4.4313703258
O       -2.5565965462   -0.7083198677    5.0328797350
O       -0.9771581878   -1.5576864171    6.7277627084
S       -1.3104751745   -1.4436780373    5.2988724073
Cl      -1.2485600129   -7.1827869443    2.4891517630
Cl      -3.2480207624   -4.8858731565    1.4422972287
H        3.9649960953   -3.4610330586    0.2728635722
H        1.4818955556   -3.4003077374    0.2852605129
H        5.2339426282   -2.4440356928    2.1491858047
H        0.2751175095   -2.3242752113    2.1487164498
H        4.0373178642   -1.3780954372    4.0259741784
H        0.1622245367   -3.9208016125    5.8336409762
H        0.1884854142   -6.1256845914    4.7145733220
H       -2.8694320834   -2.5905758092    3.0850975882
H        1.9435360042   -0.9851052472    5.2396602082
H       -0.2252327832    0.2107949990    3.8818931433
