15

C      0.12873    1.50781    0.61518
C     -0.32214    0.41114   -0.00061
C      0.21150   -0.96846    0.21318
O     -0.18494   -1.95679   -0.36528
O     -1.13594    2.73715   -2.14860
O      1.20540   -0.99524    1.14253
O     -2.61373    0.77036   -3.01472
O     -0.09367    0.50578   -3.02878
O     -1.38354    0.42454   -0.90043
P     -1.28483    1.27074   -2.26860
H     -0.29782    2.48288    0.40351
H      0.94378    1.42583    1.32382
H      1.48361   -1.92831    1.20788
H     -3.29721    1.46208   -3.01649
H      0.38386    1.09956   -3.63286
