31

C      0.87092    4.03144   -6.22282
C     -0.39663    3.66304   -5.75991
C      2.00604    3.71259   -5.46758
C     -0.53737    3.00826   -4.53640
C      1.87676    3.02605   -4.26102
C     -4.03986    3.69700    1.32138
C      0.60200    2.70557   -3.77419
C     -1.04685    3.33435   -1.51933
C     -3.45522    2.47125    1.19269
C     -2.02593    3.30236   -0.53435
C     -3.64851    4.84475    0.51004
C     -0.95910    4.74489   -1.95518
C     -3.81836    1.26956    2.01428
N      0.52201    1.91272   -2.59422
N     -0.28303    2.17022   -1.65589
N     -2.46094    2.27963    0.25092
N     -2.08315    5.38130   -1.33797
N     -2.62466    4.51619   -0.39474
O     -4.08734    5.98738    0.56514
O     -0.15795    5.35084   -2.64710
H      0.97473    4.55279   -7.17067
H     -1.27983    3.89158   -6.35094
H      2.99399    3.98743   -5.82799
H     -1.52130    2.71654   -4.18035
H      2.74857    2.74747   -3.67576
H     -4.82339    3.86232    2.04986
H     -4.16665    0.45259    1.37274
H     -4.61018    1.51447    2.72258
H     -2.95009    0.90819    2.57653
H     -1.96382    1.39936    0.14877
H     -2.03320    6.35292   -1.04268
