15

C      0.37829    1.63093    0.45915
C     -0.22752    0.55507   -0.05253
C     -0.09550   -0.81471    0.52220
O     -0.63590   -1.80722    0.05088
O     -3.23669    0.47076    0.03367
O      0.68255   -0.87161    1.61934
O     -2.56055   -1.24099   -1.88605
O     -3.07929    1.06019   -2.51507
O     -0.96340    0.63347   -1.21681
P     -2.55950    0.21956   -1.25407
H      0.24940    2.60376   -0.00380
H      1.01182    1.53976    1.33262
H      0.68265   -1.80321    1.91251
H     -1.95502   -1.81536   -1.36651
H     -3.61125    1.82057   -2.22517
