32

C     -1.23984   -2.26981    4.24383
C     -1.20225   -2.74156    2.91262
C     -2.23507   -1.39525    4.67111
C     -2.16113   -2.34676    1.98206
C     -4.95023   -0.09647    2.57715
C     -3.21734   -0.97885    3.75344
C     -4.36906   -0.10454    3.83470
C     -3.15854   -1.46751    2.41842
C     -9.28269    4.47329    6.72247
C     -9.05749    3.88370    5.45269
C     -7.25885    2.83573    6.27654
C     -4.81690    0.61626    5.00881
C    -10.42901    5.40541    6.98897
N     -8.43804    4.18208    7.71069
N     -8.05351    3.06495    5.21260
N     -7.41066    3.35925    7.50936
N     -5.85964    1.37653    4.98809
N     -4.22787   -0.91028    1.73221
N     -6.18011    2.00036    6.15179
O     -9.90582    4.17032    4.44188
H     -0.47629   -2.59788    4.94393
H     -0.41262   -3.42352    2.60941
H     -2.24679   -1.04349    5.69966
H     -2.13195   -2.71001    0.95767
H     -5.82798    0.43610    2.23814
H     -4.22535    0.48659    5.92551
H    -11.38982    4.91618    6.79569
H    -10.39386    5.72631    8.03179
H    -10.38127    6.28669    6.34015
H     -4.44551   -1.07257    0.75916
H     -5.62431    1.87399    6.99774
H     -9.58406    3.67401    3.66463
