15

C      0.40517    1.27229    0.60269
C     -0.09838    0.20851   -0.03037
C      0.21147   -1.20083    0.35107
O     -0.42762   -2.17034   -0.03657
O     -3.11722    0.45945   -2.43407
O      1.26559   -1.31538    1.18127
O     -2.95692    1.46771   -0.04212
O     -2.89823   -0.99152   -0.21579
O     -0.91983    0.32844   -1.13437
P     -2.55768    0.29976   -1.08324
H      0.12294    2.27536    0.30080
H      1.09847    1.14314    1.42501
H      1.35147   -2.26478    1.39511
H     -3.40619    2.19237   -0.51006
H     -2.21545   -1.69676   -0.30314
