21

C     -2.79868   -6.59520    0.71166
C     -3.70742   -6.86958   -0.34764
C     -1.67218   -6.11147    0.06821
C     -0.22247   -3.22175   -2.38988
C     -1.24366   -4.07989   -2.46069
C     -5.08895   -7.43233   -0.22754
C     -1.09654   -5.57691   -2.35107
N     -3.16893   -6.56883   -1.53671
N     -1.91202   -6.13326   -1.27965
N     -2.97823   -6.87370    2.08274
Cl    -0.16672   -5.60332    0.75298
H     -0.37315   -2.14939   -2.48436
H      0.79892   -3.56398   -2.23320
H     -2.26199   -3.71924   -2.60206
H     -5.75633   -6.75480    0.31976
H     -5.51155   -7.59489   -1.22166
H     -5.07819   -8.38698    0.31044
H     -0.05231   -5.85245   -2.18203
H     -1.44018   -6.06961   -3.26441
H     -3.87613   -6.53951    2.42125
H     -2.24109   -6.46295    2.64911
