25

C     -3.93825    3.43253    1.11482
C     -4.54816    3.43071    2.37729
C      1.59109   -2.19221    0.52125
C      3.01930   -0.32942    1.21510
C      0.54675   -1.67392    1.28719
C      1.97239    0.18558    1.97977
C     -2.80997    2.64598    0.90197
C     -3.99233    2.63277    3.37531
C      2.80389   -1.50613    0.50028
C      0.75093   -0.49144    2.00196
C     -2.35017    1.88883    1.98811
N     -2.90411    1.86820    3.18568
O     -1.51954   -0.91103    3.29745
O     -0.02977    1.03602    4.01860
O     -1.22532    1.11362    1.75116
F      3.81747   -2.00712   -0.24106
S     -0.57977    0.15842    2.99642
H     -4.33740    4.03962    0.30668
H     -5.42925    4.03105    2.58096
H      1.47948   -3.10999   -0.04706
H      3.98679    0.16025    1.17102
H     -0.40978   -2.18330    1.34222
H      2.10129    1.09208    2.56207
H     -2.29518    2.60610   -0.05206
H     -4.42791    2.59626    4.37171
