25

C      2.43357   -0.47386    0.13299
C      1.32248   -0.00518    0.82206
C      3.13613   -1.58905    0.59920
C     -4.29661    3.93568    2.56607
C      0.87923   -0.63831    2.00026
C      2.71454   -2.23119    1.76383
C      1.59236   -1.76360    2.46612
C     -2.72191    2.42269    2.53029
C     -0.29672   -0.12557    2.71120
N     -3.55459    4.15762    1.51651
N     -2.54115    3.19468    1.48151
N     -0.92556    0.90418    2.25802
N     -3.81511    2.83518    3.25978
N     -4.25445    2.20403    4.43315
N     -1.99929    1.33226    2.95209
Cl     3.61734   -3.62292    2.31738
Cl     1.08454   -2.59061    3.92779
H      2.76255    0.02538   -0.77378
H      0.76863    0.85907    0.47093
H      4.00574   -1.96565    0.07069
H     -5.16356    4.50297    2.87926
H     -0.61486   -0.63901    3.62288
H     -5.20996    1.87341    4.30445
H     -4.23240    2.86848    5.20574
H     -2.31428    0.86739    3.80444
