35

C     -0.86786   -6.05866   -0.82133
C     -1.59090   -5.83778   -2.01066
C     -0.82754   -1.82921   -0.93333
C      1.14957    1.34240   -1.16491
C      0.72175   -0.02167   -1.72746
C     -1.29887    0.51383   -0.39394
C     -0.53479    1.30593    0.69527
C      0.98865    1.39692    0.35902
C     -0.84394    0.76554    2.09718
C      1.84108    0.31205    1.03368
C      0.11395   -2.81777   -1.65125
N     -0.12043   -4.97824   -0.56976
N     -1.28074   -4.62387   -2.47921
N     -0.39735   -4.16407   -1.59065
N     -0.45812   -0.51509   -1.00660
O     -1.82542   -2.22622   -0.34029
O      1.49914    2.69120    0.73618
H     -0.84691   -6.91620   -0.16265
H     -2.28917   -6.47570   -2.53526
H      2.19272    1.53545   -1.43116
H      0.55563    2.14978   -1.60438
H      0.51485    0.06547   -2.80321
H      1.54372   -0.73096   -1.61047
H     -2.17411    0.01425    0.01935
H     -1.64601    1.19084   -1.18395
H     -0.89205    2.34046    0.64082
H     -0.60110   -0.29751    2.18421
H     -1.91078    0.87701    2.31525
H     -0.29541    1.30522    2.87842
H      1.84833    0.43816    2.12061
H      2.87481    0.38686    0.68239
H      1.46832   -0.69500    0.82918
H      1.09785   -2.82081   -1.17757
H      0.23244   -2.54912   -2.70282
H      1.43342    2.76853    1.70178
