15

C      0.66043    1.46081    0.21798
C     -0.06036    0.47090   -0.31335
C      0.03312   -0.96891    0.07934
O     -0.58561   -1.86292   -0.45529
O     -3.21870    0.61540    0.05487
O      0.90409   -1.16561    1.10409
O     -3.10977    1.04057   -2.49902
O     -2.17473    2.80534   -0.86995
O     -0.95446    0.68677   -1.35820
P     -2.45604    1.21456   -1.04914
H      0.53848    2.48175   -0.12896
H      1.37282    1.24754    1.00563
H      0.89272   -2.12447    1.28594
H     -2.50586    1.24287   -3.23464
H     -2.79674    3.19281   -0.22989
