15

C      0.29515    1.32971    0.33192
C     -0.19532    0.16011   -0.08855
C      0.20621   -1.17574    0.44824
O     -0.26561   -2.23223    0.08790
O     -2.62210    2.20720   -0.85433
O      1.17407   -1.07591    1.39986
O     -3.21279   -0.09296    0.24136
O     -3.30678    0.13025   -2.27775
O     -1.12760    0.04799   -1.11542
P     -2.58030    0.73449   -0.98175
H     -0.05072    2.26639   -0.09290
H      1.03717    1.34491    1.12081
H      1.36166   -1.98995    1.68559
H     -3.85693    0.44018    0.73770
H     -3.38656    0.79754   -2.98061
