15

C      0.40996    1.44368    0.93925
C     -0.04601    0.59344    0.02114
C      0.59078   -0.76483   -0.20391
O      1.76013   -0.93957    0.06741
O     -2.77104   -0.88966   -0.40201
O     -0.17503   -1.74327   -0.71066
O     -3.33374    1.22962   -1.88510
O     -3.18789    1.45406    0.58366
O     -1.08048    0.99657   -0.85433
P     -2.61817    0.56714   -0.61348
H     -0.04129    2.42049    1.07890
H      1.25672    1.15569    1.55136
H     -1.14243   -1.54723   -0.64212
H     -3.24417    0.71022   -2.70358
H     -3.32033    2.39324    0.36522
