15

C      1.50924    1.14296    0.33629
C      0.52622    0.46588   -0.26424
C     -0.07791   -0.77952    0.28914
O     -0.97364   -1.40718   -0.26220
O      1.19662   -0.82555   -2.89052
O      0.45037   -1.16381    1.46615
O     -0.10661    1.16243   -3.94436
O     -1.45649   -0.62465   -2.89568
O     -0.05283    0.92536   -1.43079
P      0.00585    0.03297   -2.81830
H      1.91319    2.04011   -0.12118
H      1.90638    0.80622    1.28586
H     -0.00204   -1.99199    1.71755
H     -1.01579    1.48224   -4.07696
H     -1.63299   -1.12015   -2.06460
