25

C      1.89153   -2.64690    2.07748
C      0.79470   -1.80364    2.21531
C      3.05299   -2.17728    1.46740
C     -1.94164    5.39732    0.92945
C      0.81252   -0.47235    1.75072
C      3.10363   -0.86002    1.00387
C      1.99999   -0.00028    1.13854
C     -2.05053    3.36788    1.68391
C     -0.42713    0.28049    1.96839
N     -2.70888    5.41807    1.99026
N     -2.77115    4.11564    2.48653
N     -0.66708    1.46900    1.53940
N     -1.50031    4.11764    0.67470
N     -0.71547    3.73057   -0.42823
N     -1.90830    1.98767    1.78915
Cl     4.58744   -0.32038    0.25727
Cl     2.15262    1.63775    0.55937
H      1.84664   -3.66841    2.44280
H     -0.10984   -2.17394    2.69033
H      3.92251   -2.81504    1.34808
H     -1.65928    6.23923    0.31238
H     -1.19096   -0.26342    2.53928
H     -1.29944    3.15898   -1.04030
H      0.02386    3.12367   -0.07327
H     -2.45129    1.59673    2.56164
