15

C      0.07129    1.24646    1.03745
C     -0.55415    0.16944    0.56401
C     -0.34906   -1.21342    1.12315
O      0.40107   -1.43820    2.04594
O     -2.45976    2.63605   -0.40240
O     -1.05980   -2.19159    0.51936
O     -3.62719    0.50232    0.58924
O     -3.41787    0.72226   -1.90999
O     -1.43858    0.19718   -0.53400
P     -2.72146    1.19112   -0.54303
H     -0.09219    2.23377    0.61977
H      0.74785    1.11641    1.87446
H     -1.60044   -1.80043   -0.19299
H     -4.19930    1.14019    1.04978
H     -3.27743    1.36556   -2.62633
