27   

C       -1.6593441422   -0.4133528747    1.7487559668
C       -0.5849495211   -0.6254111149    0.8657563523
C       -2.4634086447   -1.4907445085    2.1525917982
C       -0.3101702573   -1.9135747027    0.3831757951
C       -2.1789718770   -2.7713288745    1.6663574591
C       -1.1217040388   -2.9713693428    0.7980845885
C       -2.8842541797   -4.0204124971    1.9706930036
C       -2.2416826896   -7.1384680975    2.7179635747
C       -2.7253462448   -8.2178324353    3.4071552909
C       -2.8697131865   -6.4889223063    1.5006027502
C       -3.6649704999   -8.2393293566    4.5758054572
N       -2.3453913409   -5.1457440797    1.3859994612
O       -3.8742094168   -4.0699475461    2.6867310830
O       -1.3416712875   -4.9652645699   -1.0488792627
O        0.2263960084   -5.3419536315    0.8257080592
S       -1.0255473819   -4.7216405893    0.3663157876
Br      -2.7333403683   -8.8260816213    6.2247837358
H       -1.8673735654    0.5840880064    2.1204702099
H        0.0352013155    0.2084413507    0.5561817827
H       -3.2947552811   -1.3431744660    2.8352870618
H        0.5176785215   -2.0869731177   -0.2983664390
H       -1.1585342814   -7.0634285813    2.6963540715
H       -1.9766156498   -8.9960171263    3.5193441518
H       -2.6334915163   -7.0694681220    0.6014679476
H       -3.9607037660   -6.4684899379    1.6041270910
H       -4.5022967833   -8.9113538599    4.3657366309
H       -4.0698057972   -7.2346371202    4.7352616757
27   

C       -1.6973626927   -0.5310371224    1.9749611039
C       -0.6662530653   -0.6359358378    1.0237100940
C       -2.4514495750   -1.6620388156    2.3260277303
C       -0.3844555507   -1.8702817584    0.4203716488
C       -2.1615993643   -2.8883835568    1.7184061671
C       -1.1457645531   -2.9824800012    0.7846072187
C       -2.8211825256   -4.1790060477    1.9454881794
C       -2.0467048257   -7.2578584616    2.4638357716
C       -2.6513860754   -8.1200049121    3.3244266904
C       -2.7363604555   -6.6033213883    1.2859784176
C       -3.6231053601   -7.7431052720    4.4029102130
N       -2.3048316069   -5.2263037403    1.2147010347
O       -3.7597030947   -4.3262057348    2.7159168796
O       -1.3822545028   -4.8109619900   -1.2233855796
O        0.2511866848   -5.3148365116    0.5624830727
S       -1.0269929785   -4.6849546545    0.1979506199
Br      -2.8999387511   -8.2023995347    6.1903333454
H       -1.9108883802    0.4253527348    2.4396982602
H       -0.0851566945    0.2390584534    0.7545051944
H       -3.2494956958   -1.5965506397    3.0592863739
H        0.4098929323   -1.9614158867   -0.3149607809
H       -0.9938912141   -7.4459042251    2.2769432912
H       -2.0383428874   -8.9730610770    3.5982159650
H       -2.4660498655   -7.1261226887    0.3613582373
H       -3.8253530252   -6.6655099654    1.3939020302
H       -4.5722964292   -8.2633865601    4.2448296509
H       -3.8177780021   -6.6659960365    4.3620256251
27   

C       -1.7310371359   -0.5682630431    2.0081665558
C       -0.7074698634   -0.6644470425    1.0479122292
C       -2.4760023861   -1.7044701497    2.3615384349
C       -0.4241107159   -1.8952780665    0.4379616046
C       -2.1842852437   -2.9271759035    1.7474711302
C       -1.1761116923   -3.0129778078    0.8048596311
C       -2.8337291033   -4.2221201330    1.9773969267
C       -1.9698437133   -7.3268292010    2.4280738735
C       -2.5490292786   -8.0933561616    3.3796831040
C       -2.7368325766   -6.6469510953    1.3158672500
C       -3.5952139010   -7.6188412301    4.3421323613
N       -2.3078005259   -5.2683014716    1.2518226752
O       -3.7741905922   -4.3719089537    2.7446645289
O       -1.4354300535   -4.8394049012   -1.2017474546
O        0.2374220020   -5.3322969736    0.5501209995
S       -1.0535664151   -4.7134979632    0.2127050612
Br      -3.0243874941   -7.9532066534    6.2101253503
H       -1.9456373499    0.3852639893    2.4782878754
H       -0.1333643342    0.2146145454    0.7769857685
H       -3.2678787098   -1.6458912776    3.1020669204
H        0.3645170062   -1.9795537127   -0.3042840695
H       -0.9407363408   -7.5647933538    2.1773350478
H       -1.9319341689   -8.9031587864    3.7562816668
H       -2.5279811346   -7.1457653976    0.3625316947
H       -3.8167202507   -6.7130015639    1.4916904871
H       -4.5384496207   -8.1380238612    4.1489620517
H       -3.7666787332   -6.5459871116    4.2083674240
27   

C       -1.7179383573   -0.5735017373    2.0086292661
C       -0.6833877887   -0.6719352001    1.0604843622
C       -2.4717154296   -1.7073346403    2.3502187285
C       -0.3977510208   -1.9027168108    0.4512041639
C       -2.1771266729   -2.9298925835    1.7371689604
C       -1.1584207471   -3.0183314310    0.8066738110
C       -2.8331940442   -4.2225975465    1.9585854698
C       -1.9139682684   -7.3823695393    2.3238916754
C       -2.4306474994   -8.0452002873    3.3765805128
C       -2.7408742559   -6.6487247590    1.2927283878
C       -3.5128365205   -7.5291997523    4.2711740701
N       -2.2874320531   -5.2758347049    1.2577858704
O       -3.7976486121   -4.3610838718    2.6972652721
O       -1.4254344736   -4.8447988492   -1.1982597073
O        0.2569365280   -5.3359791600    0.5444318989
S       -1.0368818658   -4.7190963938    0.2144256135
Br      -2.9942555890   -7.7389244453    6.1718153523
H       -1.9340624520    0.3796921591    2.4787644662
H       -0.1024830955    0.2053893456    0.7986139195
H       -3.2717966055   -1.6473370406    3.0818007031
H        0.3994129434   -1.9885413266   -0.2816421453
H       -0.9200555984   -7.6753653418    2.0002254875
H       -1.7946112080   -8.8119084445    3.8078482676
H       -2.6037029410   -7.1109752432    0.3084620817
H       -3.8084112632   -6.7048420339    1.5345678907
H       -4.4405833434   -8.0774917992    4.0836103690
H       -3.6984295968   -6.4705673490    4.0692615514
27   

C       -1.9746316457   -0.7051137061    2.1278078131
C       -0.7381282323   -0.8435080792    1.4714461477
C       -2.8418579003   -1.8033822999    2.2363737297
C       -0.3632911436   -2.0791604477    0.9232903713
C       -2.4575918111   -3.0302421396    1.6851667540
C       -1.2402567827   -3.1586607079    1.0433245930
C       -3.2052714241   -4.2911374602    1.7031469837
C       -2.1571289470   -7.5717021588    2.0648653072
C       -2.3978157972   -7.7584959459    3.3742464612
C       -3.0106001597   -6.7364544473    1.1307532560
C       -3.0757600150   -6.7780394567    4.2713249015
N       -2.5450313194   -5.3655512114    1.1467626396
O       -4.3344228174   -4.3878939467    2.1644682263
O       -1.0815218785   -4.9399790042   -1.0059818755
O        0.1087642215   -5.5288166017    1.0749205252
S       -1.0476475356   -4.8570637929    0.4623836099
Br      -1.7881037075   -5.3828864103    4.8456842570
H       -2.2588366902    0.2507490600    2.5540375891
H       -0.0693406257    0.0059374797    1.3898626745
H       -3.7970176347   -1.7140948391    2.7446208235
H        0.5904708830   -2.1971942776    0.4172895312
H       -1.4570836892   -8.2514849800    1.5906199399
H       -1.9065756313   -8.5941520518    3.8614123112
H       -2.9492954119   -7.1353667144    0.1120191073
H       -4.0618777260   -6.7927175251    1.4350920676
H       -3.4542012194   -7.2967027810    5.1572936981
H       -3.9304551195   -6.3180359727    3.7676713699
27   

C       -1.9824691091   -0.6791604620    2.1361277248
C       -0.7310965536   -0.8400344775    1.5139918578
C       -2.8600426529   -1.7688967848    2.2459724814
C       -0.3521164508   -2.0894904285    1.0007673979
C       -2.4708777669   -3.0097111287    1.7306226584
C       -1.2398334473   -3.1602175929    1.1209446710
C       -3.2258450639   -4.2655691717    1.7606046491
C       -2.2348967566   -7.6262595508    2.0767802459
C       -2.3187894407   -7.6971203570    3.4142937828
C       -3.0630308951   -6.7144554534    1.1926525079
C       -2.9906768944   -6.6989378142    4.2918111794
N       -2.5512653813   -5.3612147786    1.2656008117
O       -4.3697845866   -4.3422666309    2.1880002250
O       -1.0728465710   -4.9894158304   -0.8851136092
O        0.1036709359   -5.5323874637    1.2162437614
S       -1.0473139247   -4.8725915117    0.5812028677
Br      -1.6900346206   -5.3144777938    4.8615833246
H       -2.2699990114    0.2872619990    2.5355084273
H       -0.0540027701    0.0027675665    1.4321171601
H       -3.8264713945   -1.6625973479    2.7290531502
H        0.6131896248   -2.2247474671    0.5217382588
H       -1.6186657379   -8.3648497611    1.5751867401
H       -1.7878902782   -8.5031316968    3.9097248670
H       -3.0242229763   -7.0673158120    0.1559311761
H       -4.1131112206   -6.7503229231    1.5040079692
H       -3.3790753570   -7.2040530156    5.1812735968
H       -3.8400564243   -6.2353761064    3.7835421462
27   

C       -2.0084013290   -0.7522403517    1.9731365885
C       -0.7347614591   -0.9230990900    1.4008550939
C       -2.8864894303   -1.8421428573    2.0758694602
C       -0.3341375466   -2.1826676393    0.9303555662
C       -2.4753336359   -3.0929804984    1.6037288880
C       -1.2228888247   -3.2534411126    1.0424909454
C       -3.2266319272   -4.3506071014    1.6371185485
C       -2.2692075878   -7.7437422477    1.9987581456
C       -2.2338723811   -7.6932647892    3.3386759876
C       -3.0522741555   -6.8047697322    1.1019614710
C       -2.9553844133   -6.7084033778    4.1876168472
N       -2.5283446357   -5.4574985373    1.2033323596
O       -4.3863555310   -4.4205532498    2.0209223791
O       -0.9916368721   -5.1302379909   -0.9125941878
O        0.1280298585   -5.6158854366    1.2335439661
S       -1.0075549578   -4.9776743188    0.5506176332
Br      -1.7076633516   -5.2869994318    4.7833586130
H       -2.3127699123    0.2219461096    2.3398537070
H       -0.0572284259   -0.0801201118    1.3247574134
H       -3.8699907058   -1.7283588967    2.5213557926
H        0.6484544780   -2.3255524174    0.4903076830
H       -1.6943324934   -8.5239573904    1.5113722105
H       -1.6521439279   -8.4505725788    3.8535218174
H       -2.9848141648   -7.1459362074    0.0627556686
H       -4.1124218526   -6.8316034317    1.3781248670
H       -3.3521933407   -7.2184327923    5.0705252775
H       -3.8051248131   -6.2716974459    3.6569747456
27   

C       -1.9603462826   -0.3548636810    1.7552223222
C       -0.6739517280   -0.5417621302    1.2175266078
C       -2.8398462149   -1.4421897845    1.8718320480
C       -0.2619937888   -1.8148173890    0.7955621491
C       -2.4172874515   -2.7064716593    1.4481314054
C       -1.1524453218   -2.8827402524    0.9206262565
C       -3.1681534420   -3.9634500882    1.5039518428
C       -2.2552179313   -7.3651411131    1.9663081283
C       -2.1016192111   -7.1818079637    3.2863494365
C       -2.9901478444   -6.4281046657    1.0259263298
C       -2.8697100749   -6.2190266955    4.1176706388
N       -2.4592177167   -5.0829385135    1.1228547015
O       -4.3360376997   -4.0234189183    1.8639546807
O       -0.8784374897   -4.8199312633   -0.9690141129
O        0.1958238080   -5.2362254683    1.2146858619
S       -0.9253884373   -4.6213099592    0.4880138990
Br      -1.6850157373   -4.7433949279    4.7094625438
H       -2.2735446728    0.6297960131    2.0846299872
H        0.0046404986    0.2993252272    1.1307569885
H       -3.8331948294   -1.3160331381    2.2913913756
H        0.7304739271   -1.9700345771    0.3827112139
H       -1.7149844381   -8.1882404154    1.5109245027
H       -1.4638954800   -7.8817661962    3.8158880746
H       -2.8856239617   -6.7863687386   -0.0044580696
H       -4.0606356586   -6.4411747486    1.2600283018
H       -3.2525769293   -6.7357704939    5.0028222082
H       -3.7318136502   -5.8222166115    3.5752936985
27   

C       -2.0010854658   -0.5283490865    1.8594647528
C       -0.7087193781   -0.7163708315    1.3367087355
C       -2.8867375041   -1.6126197594    1.9547464484
C       -0.2972458747   -1.9873640913    0.9078058594
C       -2.4642535197   -2.8747674593    1.5247134584
C       -1.1941741479   -3.0522400912    1.0109338056
C       -3.2209379583   -4.1286397108    1.5605902788
C       -2.4339083145   -7.5649492623    1.9927746249
C       -2.1354359815   -7.3151813326    3.2784786854
C       -3.0652661811   -6.5799642881    1.0241176187
C       -2.8704591038   -6.3674081115    4.1556929217
N       -2.5117295367   -5.2496348207    1.1837664637
O       -4.3937516817   -4.1850804110    1.9048614696
O       -0.9173876704   -4.9729241716   -0.8950469749
O        0.1417045933   -5.4153301705    1.2908553366
S       -0.9720342451   -4.7878835403    0.5635292206
Br      -1.6636792332   -4.9081936871    4.7432122085
H       -2.3141728436    0.4546273381    2.1939894080
H       -0.0252287044    0.1223040882    1.2668260062
H       -3.8847739427   -1.4858962534    2.3628976207
H        0.6997475871   -2.1433253456    0.5063556747
H       -1.9793190116   -8.4429601759    1.5466130283
H       -1.4768715587   -8.0173366516    3.7788181252
H       -2.8963756762   -6.9207349911   -0.0037334415
H       -4.1502474679   -6.5670665892    1.1776937716
H       -3.2265224250   -6.9022274435    5.0412922201
H       -3.7478786585   -5.9573530757    3.6482019615
27   

C       -2.0837662790   -0.4478355421    1.9526623491
C       -0.7878241117   -0.6395973726    1.4402468617
C       -2.9868768734   -1.5205496433    2.0026355359
C       -0.3904340989   -1.9026225494    0.9757410437
C       -2.5781240035   -2.7748361685    1.5378020461
C       -1.3048224306   -2.9560359138    1.0332492923
C       -3.3531151779   -4.0177399347    1.5285285414
C       -2.7331514256   -7.4575460379    1.9556633202
C       -2.2824635722   -7.1638540464    3.1889700416
C       -3.2287078952   -6.4540594694    0.9251220536
C       -2.9451420919   -6.2134980658    4.1228458576
N       -2.6556929301   -5.1377969757    1.1279424378
O       -4.5288644036   -4.0677760740    1.8637178958
O       -1.0418390565   -4.8212316497   -0.9293450140
O       -0.0062357600   -5.3480538546    1.2487917758
S       -1.1044790769   -4.6804452068    0.5338186466
Br      -1.6767345397   -4.7926633593    4.6722823067
H       -2.3860304615    0.5287574385    2.3147163556
H       -0.0906144219    0.1899352629    1.4061785980
H       -3.9877161826   -1.3914035490    2.4031073734
H        0.6092942032   -2.0614442832    0.5823700729
H       -2.3940111856   -8.4002105055    1.5398670298
H       -1.6230789905   -7.8885805921    3.6549069241
H       -2.9747873739   -6.8092442164   -0.0801563431
H       -4.3224260228   -6.4030409725    0.9713882342
H       -3.2668102845   -6.7562044807    5.0167808340
H       -3.8376983065   -5.7750701190    3.6675715213
27   

C       -2.2743714064   -0.6511544801    1.8374738707
C       -0.9921981562   -0.8231429096    1.2849887153
C       -3.1777876510   -1.7242161123    1.8668037045
C       -0.6092314058   -2.0663820850    0.7587553645
C       -2.7830274051   -2.9588275659    1.3412492199
C       -1.5238108395   -3.1205555501    0.7960004533
C       -3.5582304745   -4.2008777579    1.3070399675
C       -3.1309207005   -7.5813606233    1.7597626086
C       -2.5016044253   -7.2935892970    2.9190447598
C       -3.4490403754   -6.6155622683    0.6299927328
C       -2.9889088981   -6.3056740845    3.9238525774
N       -2.8701231837   -5.3057106244    0.8526512079
O       -4.7238903333   -4.2646328639    1.6737948129
O       -1.3318269170   -4.9076418910   -1.2465212671
O       -0.2193144861   -5.5208101320    0.8697581674
S       -1.3410037039   -4.8242107059    0.2222958126
Br      -1.5835787055   -4.9671606601    4.3245629410
H       -2.5653940550    0.3099669825    2.2470412757
H       -0.2942853665    0.0062992817    1.2679073126
H       -4.1675418932   -1.6109452270    2.2984320449
H        0.3800587211   -2.2098661291    0.3344178323
H       -2.9872555021   -8.5980594746    1.4103802961
H       -1.8943673282   -8.0869898034    3.3419970247
H       -3.0831810067   -7.0263565460   -0.3180051447
H       -4.5369626321   -6.5265558143    0.5319704101
H       -3.2402018776   -6.8315238457    4.8498681255
H       -3.8984189717   -5.8112616704    3.5705626037
27   

C       -2.3235440718   -0.7263391395    1.8624212914
C       -1.0395041950   -0.8697639120    1.3061245630
C       -3.2213272445   -1.8043894812    1.8480021703
C       -0.6488614320   -2.0892366328    0.7321112296
C       -2.8191810281   -3.0153355159    1.2752517275
C       -1.5576214123   -3.1490067304    0.7261424895
C       -3.5869415155   -4.2599808198    1.1948673370
C       -3.2988511479   -7.4975833474    1.7644863918
C       -2.5669806135   -7.2211404201    2.8736703033
C       -3.4332301542   -6.6682588729    0.5019962997
C       -2.9247399161   -6.2130769203    3.9160057398
N       -2.8942305528   -5.3371050521    0.6866858141
O       -4.7473468627   -4.3510024924    1.5724257743
O       -1.3393287992   -4.8560764361   -1.3823234941
O       -0.2457651983   -5.5493609694    0.7188507157
S       -1.3619013905   -4.8287722222    0.0883894124
Br      -1.4409263478   -4.9288550079    4.1847703156
H       -2.6201889703    0.2163231078    2.3091312242
H       -0.3458436503   -0.0367870370    1.3234598878
H       -4.2121824110   -1.7134546218    2.2823142705
H        0.3421351708   -2.2107421282    0.3049481818
H       -3.3510197616   -8.5560924568    1.5340740065
H       -2.0290134650   -8.0659501199    3.2908303623
H       -2.9255602822   -7.1713933926   -0.3288875492
H       -4.4924308630   -6.5946941197    0.2303021621
H       -3.1160441689   -6.7263863574    4.8632067002
H       -3.8400086583   -5.6826929982    3.6362581741
27   

C       -2.1639319898   -0.5936550355    2.1245611979
C       -0.8589151008   -0.7055491113    1.6115678983
C       -3.0413856298   -1.6868205518    2.0620600499
C       -0.4261366670   -1.9091656997    1.0349230345
C       -2.5984947948   -2.8813110414    1.4847635711
C       -1.3147329540   -2.9844321723    0.9820655036
C       -3.3442763869   -4.1353125061    1.3500741362
C       -3.1001779352   -7.1964923238    2.0838930992
C       -2.3578907102   -6.8922710436    3.1893321627
C       -3.0793036541   -6.5504790748    0.7129626751
C       -2.7244262811   -5.9153196324    4.2602966305
N       -2.6348450166   -5.1752933949    0.7899053757
O       -4.5053523108   -4.2602759491    1.7159611110
O       -0.9150376566   -4.6463381147   -1.1352183939
O       -0.0008316939   -5.3823933260    1.0356695495
S       -1.0617674862   -4.6494745408    0.3285378906
Br      -1.2831304354   -4.5782202285    4.4946322747
H       -2.4930034814    0.3368153255    2.5739869420
H       -0.1816855858    0.1393493882    1.6644793305
H       -4.0488076932   -1.6194374250    2.4609406087
H        0.5810946765   -2.0067439736    0.6408276881
H       -3.2919178601   -8.2587555062    1.9792767735
H       -1.8315941171   -7.7407281294    3.6139758147
H       -2.4243222698   -7.1234161184    0.0466773340
H       -4.0858359099   -6.5790680316    0.2806605968
H       -2.8678727383   -6.4466663712    5.2060714058
H       -3.6650616103   -5.4148473734    4.0088409613
