24   

C       -2.3375651222   -2.2523546022    1.5195067360
C       -4.1284783891    1.8600273938    2.3107429830
C       -4.6385764766   -0.4635435548    2.6506499301
C       -5.3741889377    2.2119858348    2.8429079886
C       -5.8856786328   -0.1054315197    3.1767457716
C       -3.7276664068    0.5161012582    2.1948079271
C       -6.2666258520    1.2324398247    3.2776408151
C       -2.3901560101    0.2463689677    1.6060001629
C       -0.3696257212   -1.0527428876    0.8011800953
C       -1.7355851253   -0.9573049848    1.3446762704
C        1.6313300516    1.8713508808    1.1446182046
N       -2.7847908585   -3.3213752262    1.6388966235
N        0.5973867405   -0.2022592971    0.7263207960
O        0.4439254312    1.0907187223    1.2804445621
Cl      -7.8241025404    1.6703970676    3.9345476566
H       -3.4660645274    2.6533841089    1.9837073019
H       -4.4349140704   -1.5220779913    2.6226579675
H       -5.6555366249    3.2556819418    2.9197918444
H       -6.5683206493   -0.8779599858    3.5118566650
H       -1.8740112074    1.1459731508    1.3042185889
H       -0.0963287146   -2.0275018460    0.4114592923
H        1.4455882318    2.8893776119    1.4988408951
H        1.9397908212    1.9140214179    0.0954521908
H        2.4392139188    1.4324940281    1.7377971954
24   

C       -2.2844868117   -2.2454691416    1.5651327103
C       -4.1940637304    1.8551063516    2.1710918505
C       -4.5885738519   -0.4540632066    2.7077630689
C       -5.4168985232    2.2008348436    2.7578032645
C       -5.8125003555   -0.1026368423    3.2897207868
C       -3.7486879379    0.5214421844    2.1253113746
C       -6.2395176733    1.2248745176    3.3202052717
C       -2.4422209476    0.2540571028    1.4720708904
C       -0.4373548208   -1.0072448735    0.6072751960
C       -1.7708317108   -0.9438636456    1.2377005839
C        1.6299240496    1.7783692546    1.3660855148
N       -2.6660228355   -3.3193373146    1.8064968583
N        0.5489456292   -0.1778049219    0.6231290584
O        0.4154488655    1.0282264437    1.3536749248
Cl      -7.7678677298    1.6546829820    4.0471884431
H       -3.5855737935    2.6442757759    1.7443684245
H       -4.3428343057   -1.5036851642    2.7402132680
H       -5.7349679729    3.2365926241    2.7778672111
H       -6.4402864661   -0.8720169308    3.7245229806
H       -1.9579020502    1.1408328369    1.0837702638
H       -0.2028611239   -1.9417121081    0.1092077427
H        1.4650507355    2.7387278868    1.8629321871
H        1.9714460974    1.9646268922    0.3431522490
H        2.4055378225    1.2286559225    1.9077613361
24   

C       -2.2014762762   -2.2074926695    1.6283605722
C       -4.2564166081    1.8499055085    2.0969044334
C       -4.5706515396   -0.4517786201    2.7137605302
C       -5.4599624562    2.1840356475    2.7284211945
C       -5.7737985602   -0.1115646860    3.3437688662
C       -3.7805761595    0.5265084591    2.0703069428
C       -6.2308622332    1.2063399445    3.3573796614
C       -2.4976722493    0.2700674080    1.3697782459
C       -0.5021179045   -0.9380206954    0.4388648750
C       -1.8013247417   -0.9149542721    1.1508452071
C        1.6247777071    1.6730734457    1.5381178146
N       -2.4961589957   -3.2746553051    1.9908043315
N        0.5031068940   -0.1406384770    0.5380601091
O        0.3888094217    0.9703703664    1.4102155540
Cl      -7.7332782408    1.6221850717    4.1440662802
H       -3.6874424413    2.6395720339    1.6195531936
H       -4.2998313663   -1.4949121094    2.7575073179
H       -5.8030250886    3.2119859702    2.7322084936
H       -6.3616223104   -0.8820962864    3.8293982672
H       -2.0427552363    1.1511108652    0.9322368830
H       -0.3075968805   -1.8226473233   -0.1572098453
H        1.4863410499    2.5495425676    2.1776020554
H        1.9751152862    2.0046464381    0.5557966695
H        2.3822515656    1.0238191072    1.9875601440
24   

C       -2.0782022028   -2.1270413610    1.6999928338
C       -4.3209021696    1.8475582798    2.0208501358
C       -4.5339710811   -0.4425301938    2.7196007089
C       -5.5126034446    2.1615415628    2.6842529786
C       -5.7238528613   -0.1218495196    3.3841873727
C       -3.8002431815    0.5410599621    2.0206645545
C       -6.2251592016    1.1800662469    3.3734227039
C       -2.5339813137    0.3039437043    1.2856726369
C       -0.5399750684   -0.8445091345    0.2985601235
C       -1.8025910781   -0.8618576309    1.0870999530
C        1.6707072614    1.5442525649    1.6785111162
N       -2.2778406198   -3.1726990613    2.1731163144
N        0.4930966750   -0.1014586829    0.4732040384
O        0.4140950248    0.8984253379    1.4746893270
Cl      -7.7108849692    1.5716246053    4.2030834817
H       -3.7972313110    2.6392013388    1.4971702575
H       -4.2267412081   -1.4748836514    2.7803021185
H       -5.8917318358    3.1766074515    2.6664476511
H       -6.2664633622   -0.8950188475    3.9160082844
H       -2.1157143448    1.1814401821    0.8048737143
H       -0.4008825413   -1.6618540850   -0.3998002097
H        1.5771904452    2.2915092042    2.4716936137
H        1.9914827492    2.0431549953    0.7589207619
H        2.4292495013    0.8118137545    1.9711661889
24   

C       -1.9593587537   -1.9841903262    1.7756269911
C       -4.4617681681    1.8452869571    1.8971424062
C       -4.4920447339   -0.3952691409    2.7675355690
C       -5.6483480509    2.1285061900    2.5831964294
C       -5.6766168597   -0.1048413772    3.4551122820
C       -3.8528352888    0.5797025169    1.9708124879
C       -6.2665239755    1.1566395288    3.3702212753
C       -2.6000930229    0.3712674605    1.2052112624
C       -0.5913677596   -0.7076714819    0.1827039262
C       -1.8084924971   -0.7598974629    1.0500869482
C        1.7804400373    1.3455094810    1.7992089235
N       -2.0628537053   -2.9973352841    2.3413835919
N        0.4870932254   -0.0532008256    0.4128416858
O        0.4875518860    0.7948311960    1.5486140010
Cl      -7.7451370107    1.5104834075    4.2290171728
H       -4.0131167155    2.6281664206    1.2963566938
H       -4.1116064435   -1.3974199569    2.8900000812
H       -6.0973362251    3.1118646566    2.5067033760
H       -6.1450859535   -0.8699030097    4.0636016523
H       -2.2471483637    1.2386966649    0.6581052489
H       -0.5491573815   -1.4131852445   -0.6388968011
H        1.7631612319    1.9183934788    2.7307501899
H        2.0702321326    2.0106461595    0.9801539298
H        2.5225340422    0.5463566166    1.8904339301
24   

C       -1.8204039539   -1.7665053661    1.8704163927
C       -4.7137566460    1.7777012745    1.7018086184
C       -4.4389073656   -0.3151592274    2.8519804788
C       -5.8938949511    2.0157253439    2.4155312705
C       -5.6193570693   -0.0708592300    3.5641549898
C       -3.9566268226    0.6089042934    1.8994020024
C       -6.3580937428    1.0938594146    3.3539514868
C       -2.7212734513    0.4431576875    1.0958675427
C       -0.6367086240   -0.5113007818    0.1076312839
C       -1.7989260670   -0.5941815260    1.0501650071
C        1.9805577745    1.0623369049    1.8711403650
N       -1.8226630812   -2.7375561898    2.5142924791
N        0.4983718764    0.0267339744    0.3584962557
O        0.6407660156    0.6326585289    1.6320184197
Cl      -7.8296655497    1.3910550515    4.2456653118
H       -4.3875736398    2.5199894009    0.9822923617
H       -3.9349632057   -1.2408955313    3.0822434614
H       -6.4582444175    2.9246060338    2.2425492482
H       -5.9668509065   -0.7957614230    4.2913604957
H       -2.4961189077    1.2677923418    0.4286493475
H       -0.7530893705   -0.9829667916   -0.8609405063
H        2.0617759578    1.4697166123    2.8829333194
H        2.2596991342    1.8397142526    1.1535000039
H        2.6719396220    0.2197690248    1.7733594440
24   

C       -1.6789809878   -1.4939832064    1.9678020214
C       -4.9959035292    1.6191434879    1.5011752234
C       -4.3760895941   -0.1992610914    2.9460728794
C       -6.1719760711    1.8039052377    2.2369450031
C       -5.5558654099   -0.0117397773    3.6763995684
C       -4.0697853125    0.6135609729    1.8327764932
C       -6.4644227634    0.9889846088    3.3306293923
C       -2.8494906456    0.4972901572    0.9978783718
C       -0.6615269247   -0.2592715571    0.0810745943
C       -1.7741845763   -0.3789471581    1.0744385095
C        2.2074937346    0.7388884515    1.8789528330
N       -1.5904937778   -2.4176017116    2.6727528402
N        0.5292294732    0.1428865108    0.3309301293
O        0.8228217591    0.4564606010    1.6820659576
Cl      -7.9325485634    1.2180719447    4.2477422849
H       -4.8064708524    2.2756230517    0.6596398848
H       -3.7301469194   -0.9907345566    3.2931069139
H       -6.8674654800    2.5875748207    1.9600449642
H       -5.7683717736   -0.6511902776    4.5255221195
H       -2.7685866154    1.2361818765    0.2084991489
H       -0.9108424612   -0.4135960916   -0.9620337268
H        2.3848210647    0.9961865829    2.9271304137
H        2.5138438408    1.5815352812    1.2517099656
H        2.8110869317   -0.1370999292    1.6230764732
24   

C       -2.2439047991   -2.3543558026    1.8998735438
C       -4.2731695340    1.7196442521    1.5833920657
C       -4.3838559303   -0.2842786657    2.9065173354
C       -5.3859750951    2.2298965912    2.2614262440
C       -5.5002256381    0.2293033666    3.5777438270
C       -3.7459848716    0.4502052740    1.8830344768
C       -6.0123920108    1.4883864088    3.2631038181
C       -2.5612990838   -0.0031994115    1.1143305638
C       -0.6748079127   -1.3588787566    0.2536256830
C       -1.8425303048   -1.1919826809    1.1630587128
C        2.0341664869   -2.5762769467    2.1710736023
N       -2.5683259322   -3.3135102544    2.4769440777
N        0.5147122748   -1.7077308038    0.5856394239
O        0.7477255842   -1.9993797484    1.9534638011
Cl      -7.4030756453    2.1233781018    4.1067470838
H       -3.8162169949    2.3296565976    0.8126240930
H       -4.0498212730   -1.2587819201    3.2276781364
H       -5.7704511430    3.2117420538    2.0110011154
H       -5.9745023716   -0.3570293173    4.3564120080
H       -2.1752997749    0.7273111806    0.4122404051
H       -0.7980644829   -1.0248331991   -0.7697909112
H        2.1752286437   -2.7665069927    3.2389086618
H        2.8169686918   -1.8934229585    1.8273246417
H        2.1195038319   -3.5229792625    1.6292801063
24   

C       -2.0704835847   -2.1765831022    2.0973384390
C       -4.3910593225    1.6979417835    1.5157921964
C       -4.3517538624   -0.2101337235    2.9771458768
C       -5.5424353713    2.1673825157    2.1577717114
C       -5.5071285587    0.2618928640    3.6120398557
C       -3.7683688095    0.4970197326    1.9029729107
C       -6.1137245755    1.4522684421    3.2101216393
C       -2.5497858687    0.0847346582    1.1635613398
C       -0.5779881383   -1.1589223108    0.3723664611
C       -1.7447115288   -1.0443273593    1.2781984468
C        2.0639469921   -2.8405408576    2.0267707154
N       -2.3362992480   -3.1104146473    2.7423211927
N        0.5878657615   -1.6353078195    0.6300090262
O        0.8393053639   -2.1143728775    1.9401948747
Cl      -7.5525863608    2.0359506020    4.0088191628
H       -3.9805588171    2.2858048255    0.7028303037
H       -3.9453401150   -1.1303945416    3.3671430346
H       -6.0005871202    3.0964265485    1.8390781831
H       -5.9379058220   -0.3028977272    4.4308762104
H       -2.2220429903    0.7992408036    0.4168184212
H       -0.6754043053   -0.6943736487   -0.6017864292
H        2.1982962980   -3.2123153589    3.0466363650
H        2.9061093789   -2.1895612931    1.7737010316
H        2.0481028277   -3.6920388587    1.3398991229
24   

C       -1.9331843839   -2.0117265858    2.3022586233
C       -4.4546560761    1.6850496345    1.4837235028
C       -4.3563227210   -0.1587739686    3.0222279847
C       -5.6387747497    2.1256384967    2.0851110868
C       -5.5439431863    0.2846811018    3.6171090264
C       -3.7837374063    0.5315557245    1.9311239818
C       -6.1965353508    1.4283133664    3.1562217201
C       -2.5334468649    0.1497194440    1.2273484016
C       -0.4981836799   -1.0008384557    0.5017708120
C       -1.6683757304   -0.9290097054    1.3971401852
C        2.0865227316   -3.0258622935    1.8565259319
N       -2.1511295195   -2.9042535533    3.0199335939
N        0.6362471710   -1.5849676878    0.6701434873
O        0.8890426713   -2.2521031383    1.8942981589
Cl      -7.6757088635    1.9762656913    3.9050156607
H       -4.0573016674    2.2583538502    0.6540015669
H       -3.9197490755   -1.0444860929    3.4562564882
H       -6.1333250831    3.0180949825    1.7196460283
H       -5.9643436875   -0.2661896300    4.4506974498
H       -2.2407359784    0.8474569434    0.4508512872
H       -0.5664887687   -0.4295898145   -0.4165346220
H        2.2058884253   -3.5619264968    2.8024792490
H        2.9515295625   -2.3726125001    1.7083381252
H        2.0413170987   -3.7542600712    1.0413769342
24   

C       -3.0037669818   -1.9072035395    0.4048070009
C       -4.0618555488    2.0851305944    2.3031551370
C       -4.5763459966   -0.2496246683    2.5461116720
C       -4.9574607664    2.3914408421    3.3336222440
C       -5.4731654578    0.0635532859    3.5750465462
C       -3.8475099773    0.7600285661    1.8790384866
C       -5.6731769517    1.3836867211    3.9788758279
C       -2.8742490891    0.5439794641    0.7776650845
C       -1.4551786517   -0.4364430594   -0.9468528024
C       -2.4541737722   -0.6113352694    0.1190144262
C       -0.0626532552   -3.4973566399   -2.1183067452
N       -3.4558520777   -2.9594381232    0.6237262875
N       -0.7349434441   -1.2952464606   -1.5813668447
O       -0.8267656155   -2.6679778509   -1.2454118434
Cl      -6.7921351670    1.7656916118    5.2637484699
H       -3.5276687159    2.9013462687    1.8304631265
H       -4.4863001792   -1.2984239164    2.3122593708
H       -5.1014768306    3.4213422262    3.6389126384
H       -6.0214591439   -0.7307505254    4.0685456129
H       -2.4055969689    1.4592693648    0.4343192098
H       -1.2589427894    0.5865398714   -1.2454343501
H       -0.2081564753   -4.5466990476   -1.8459240017
H        1.0005429308   -3.2539122766   -2.0333043718
H       -0.3836738337   -3.3537007120   -3.1543242613
24   

C       -2.8064510763   -1.9340898269    0.6016928390
C       -4.1005820257    2.0891614526    2.2728723785
C       -4.5687927537   -0.2494549741    2.5658906409
C       -5.0370945999    2.4026639373    3.2640247911
C       -5.5048858684    0.0707301706    3.5570178551
C       -3.8397614985    0.7580845148    1.8956682717
C       -5.7487013689    1.3964053584    3.9159713743
C       -2.8260384269    0.5361317186    0.8321667054
C       -1.3163649093   -0.4483061282   -0.8066626124
C       -2.3401342554   -0.6264459398    0.2329625435
C       -0.1534758326   -3.4866488289   -2.2637575335
N       -3.1822282392   -2.9974094763    0.8979615894
N       -0.6806834443   -1.3002315620   -1.5344412011
O       -0.9399045577   -2.6842558382   -1.3855914979
Cl      -6.9175863731    1.7871967645    5.1528509169
H       -3.5714774209    2.9048095875    1.7935305916
H       -4.4525385413   -1.3016299735    2.3612115422
H       -5.2165280377    3.4370960905    3.5331015862
H       -6.0505315012   -0.7224105999    4.0553065241
H       -2.3904658214    1.4566316943    0.4605121605
H       -1.0303015361    0.5760338472   -1.0139346503
H       -0.4019200400   -4.5415741816   -2.1157426724
H        0.9107227227   -3.3415173405   -2.0556138449
H       -0.3572516866   -3.2182168808   -3.3046073610
24   

C       -2.6037150066   -1.9405237091    0.7925119273
C       -4.1288900738    2.0903441460    2.2375545858
C       -4.5528486691   -0.2517459237    2.5687184537
C       -5.1059133314    2.4034492657    3.1889653892
C       -5.5277958493    0.0679588874    3.5217946790
C       -3.8231837590    0.7577312537    1.9022727736
C       -5.8141522481    1.3951890004    3.8416292653
C       -2.7699886463    0.5350738584    0.8784617526
C       -1.1717387396   -0.4595188385   -0.6722969044
C       -2.2227508215   -0.6306577548    0.3430446736
C       -0.3008241122   -3.4776927241   -2.3496261864
N       -2.8998298593   -3.0057616893    1.1627717839
N       -0.6315431738   -1.3036699054   -1.4813762099
O       -1.0809408717   -2.6466582465   -1.4926007628
Cl      -7.0323607950    1.7854898320    5.0301274335
H       -3.6038087894    2.9072397679    1.7559180201
H       -4.4099921101   -1.3048804510    2.3863349964
H       -5.3198653567    3.4390984879    3.4262304010
H       -6.0713812062   -0.7266469951    4.0199964819
H       -2.3628953151    1.4554652763    0.4754362057
H       -0.7922074029    0.5482502622   -0.7927651059
H       -0.6572540049   -4.5096042152   -2.2818013666
H        0.7513849713   -3.4472581946   -2.0513700323
H       -0.3916496505   -3.1394057368   -3.3860560990
24   

C       -2.3822467273   -1.9342920784    0.9819202827
C       -4.1496705812    2.0772586394    2.1943716324
C       -4.5111188305   -0.2692373711    2.5681209057
C       -5.1674797807    2.3806479232    3.1053934774
C       -5.5256593383    0.0407983153    3.4822079799
C       -3.7905951157    0.7478110372    1.9037622870
C       -5.8637918151    1.3653656286    3.7603806643
C       -2.6990723949    0.5319532290    0.9207635369
C       -1.0146782546   -0.4750098126   -0.5425437729
C       -2.0923631645   -0.6314481071    0.4525429521
C       -0.4938662492   -3.4498952472   -2.4119258836
N       -2.5973642860   -2.9927854700    1.4206393775
N       -0.5810479191   -1.3027337013   -1.4276379628
O       -1.2097042014   -2.5665004819   -1.5509523246
Cl      -7.1318693055    1.7437299105    4.8995578823
H       -3.6351774083    2.8984936216    1.7087033402
H       -4.3315277135   -1.3209588019    2.4095827951
H       -5.4228941383    3.4140415707    3.3090666400
H       -6.0602221135   -0.7591096184    3.9816623239
H       -2.3187884901    1.4487145107    0.4844196288
H       -0.5471323413    0.5015438843   -0.5874615305
H       -0.9934469645   -4.4226764000   -2.4354812297
H        0.5288196258   -3.5870616847   -2.0481107746
H       -0.4635626314   -3.0429565564   -3.4270262267
24   

C       -2.1693763200   -1.9215364679    1.1806625953
C       -4.1794522283    2.0576954971    2.1125189540
C       -4.4464994872   -0.2834337185    2.5874484672
C       -5.2400163132    2.3549887887    2.9756522713
C       -5.5035580319    0.0207545353    3.4539973049
C       -3.7511018651    0.7345541103    1.8986786802
C       -5.9105032672    1.3396598640    3.6573615834
C       -2.6203043267    0.5208195921    0.9619875942
C       -0.8439075396   -0.5089418113   -0.3960750777
C       -1.9560263726   -0.6386659650    0.5740871196
C       -0.7201890313   -3.3775654029   -2.4701409836
N       -2.3190484362   -2.9636241076    1.6810205781
N       -0.5247051474   -1.3040526962   -1.3544188793
O       -1.3175611771   -2.4620251463   -1.5539061083
Cl      -7.2315432777    1.7107398355    4.7372178933
H       -3.6868920286    2.8778172312    1.6028256838
H       -4.2136213235   -1.3316729544    2.4823178325
H       -5.5494216963    3.3835040103    3.1206224381
H       -6.0175134258   -0.7792248031    3.9745126834
H       -2.2641695114    1.4265315305    0.4840573973
H       -0.2842560025    0.4185650755   -0.3679344978
H       -1.3525666097   -4.2648195865   -2.5664331908
H        0.2660378046   -3.6845110324   -2.1092616816
H       -0.6141661413   -2.9102403109   -3.4537155556
24   

C       -1.9618382707   -1.9123904372    1.4231887960
C       -4.2098883283    2.0167537168    1.9901493353
C       -4.3613205798   -0.2914528585    2.6441996802
C       -5.3107811990    2.3192448003    2.7994552850
C       -5.4590838951    0.0182637999    3.4563412599
C       -3.7033089043    0.7077918701    1.8942191320
C       -5.9442497564    1.3235131608    3.5429718320
C       -2.5361364023    0.4836976597    1.0067339822
C       -0.6713298334   -0.5808436197   -0.2283932748
C       -1.8111469812   -0.6687101956    0.7262932735
C       -0.9782193917   -3.2381806031   -2.5394636758
N       -2.0584385796   -2.9235134622    1.9946245985
N       -0.4720696734   -1.3200230093   -1.2584505560
O       -1.4100368338   -2.3538858098   -1.5066694764
Cl      -7.3156656671    1.7013869062    4.5555837350
H       -3.7482153911    2.8205987322    1.4282846119
H       -4.0666253506   -1.3293642753    2.6286584716
H       -5.6810516429    3.3363633219    2.8535154394
H       -5.9433836076   -0.7667401121    4.0257929018
H       -2.2084537703    1.3640780255    0.4653226920
H       -0.0129184963    0.2740387966   -0.1292374498
H       -1.7366168430   -4.0090827243   -2.7034769242
H       -0.0391016909   -3.7215797861   -2.2540412312
H       -0.8290921344   -2.6850868359   -3.4717023199
24   

C       -2.7750763730   -1.6415483457    0.1851310177
C       -3.6708489644    1.5632126760    3.3221701936
C       -4.8006270615   -0.1615468586    2.0863545494
C       -4.8596461508    1.8576896650    3.9994418380
C       -5.9862139322    0.1354871497    2.7694098754
C       -3.6081855641    0.5466834977    2.3518038337
C       -6.0285772598    1.1454434806    3.7310003401
C       -2.3053900724    0.3107131494    1.6833457545
C       -0.5259410879   -0.6120492509    0.2060571793
C       -1.9375490094   -0.6014390722    0.7022061101
C       -0.6264584327    0.4088994046   -3.1715989820
N       -3.4334874624   -2.5064157129   -0.2348218895
N       -0.1358068793   -0.2412133178   -0.9569651526
O       -1.1448212783    0.1707843813   -1.8637513437
Cl      -7.5115652414    1.5114543247    4.5770247126
H       -2.7858063013    2.1421991117    3.5598738728
H       -4.8661344070   -0.9516517623    1.3545637209
H       -4.8797758369    2.6473128931    4.7414716284
H       -6.8873724824   -0.4249691739    2.5483490599
H       -1.5096652638    0.9788677936    1.9932111529
H        0.2502590697   -0.8417870893    0.9263229015
H       -1.4327079357    0.7412465214   -3.8317729039
H       -0.1926077120   -0.5095401002   -3.5782994262
H        0.1440849598    1.1850296080   -3.1367010465
24   

C       -2.7790387869   -1.9152037591    0.3546117579
C       -3.6953212786    1.7219460929    2.9806379864
C       -4.7588737796   -0.2798933135    2.1806172271
C       -4.8624792554    2.0666407133    3.6717967790
C       -5.9242621378    0.0709362089    2.8728112964
C       -3.6116253840    0.5424168365    2.2190130340
C       -5.9885215044    1.2446086713    3.6243895213
C       -2.3330294173    0.2600159614    1.5228932973
C       -0.5583397116   -0.8588911705    0.1693292580
C       -1.9458142884   -0.8154070930    0.7339882373
C       -0.6996154495    0.7417461013   -2.9698171187
N       -3.4308139239   -2.8296480830    0.0439674548
N       -0.1841475263   -0.3502671353   -0.9450962576
O       -1.1720151641    0.3510796046   -1.6810011822
Cl      -7.4453900622    1.6749606952    4.4853961042
H       -2.8429559638    2.3887753783    3.0431236763
H       -4.8027739708   -1.2040929824    1.6257231407
H       -4.8989950151    2.9812671836    4.2519723482
H       -6.7919610945   -0.5770651546    2.8253371054
H       -1.5671717061    1.0173029802    1.6488948762
H        0.1879287679   -1.4027895537    0.7362533270
H       -1.5071392237    1.2248378821   -3.5273186779
H       -0.3587971475   -0.1342449640   -3.5301521866
H        0.1307893869    1.4469170485   -2.8678468664
24   

C       -2.7784924222   -2.1329244016    0.5281639594
C       -3.7275837489    1.7934747045    2.6787553285
C       -4.7120768492   -0.3618464181    2.2738965136
C       -4.8674783404    2.1807820111    3.3925424332
C       -5.8516261377    0.0326527917    2.9853278566
C       -3.6192331479    0.5155988252    2.1014756872
C       -5.9413183744    1.3046229758    3.5515194334
C       -2.3710972702    0.1933913154    1.3684137584
C       -0.6171275668   -1.0473501612    0.0925855276
C       -1.9609721403   -0.9785651576    0.7450245941
C       -0.7131213287    1.0254445103   -2.7616951158
N       -3.4144568918   -3.0919897041    0.3465041754
N       -0.2442146510   -0.4224458250   -0.9631557509
O       -1.1598694552    0.5132706590   -1.5064299832
Cl      -7.3650175169    1.7884432315    4.4392336519
H       -2.9151082619    2.5040275355    2.5781199198
H       -4.7313464096   -1.3639604083    1.8746271401
H       -4.9232420848    3.1710587489    3.8292134734
H       -6.6786898897   -0.6586689428    3.0997078092
H       -1.6448082424    0.9976551038    1.3237777714
H        0.0571844526   -1.8176988876    0.4481482949
H       -1.4819967106    1.6748869045   -3.1898526482
H       -0.5166837715    0.2047459568   -3.4584937983
H        0.2043509478    1.6058401407   -2.6251975562
24   

C       -2.7938317289   -2.2821252747    0.6732330714
C       -3.7697999225    1.8041639132    2.4840612911
C       -4.6947532045   -0.4101111883    2.3438209579
C       -4.8890490484    2.2264161497    3.2105650081
C       -5.8135988061    0.0188418551    3.0680656208
C       -3.6426341939    0.4786100916    2.0315758478
C       -5.9225400430    1.3381230886    3.5085937787
C       -2.4182924264    0.1236756847    1.2734450323
C       -0.7136005239   -1.1923728431   -0.0040303020
C       -2.0063385797   -1.0866337586    0.7267614363
C       -0.6360355656    1.2017601393   -2.6038566692
N       -3.4021381863   -3.2742279492    0.6203845669
N       -0.3019883649   -0.4844557437   -0.9935787822
O       -1.1187957279    0.5990272922   -1.4032842188
Cl      -7.3202501959    1.8649169907    4.4129888763
H       -2.9887443601    2.5256566947    2.2729356717
H       -4.6966800790   -1.4478947369    2.0491053965
H       -4.9601115247    3.2536804363    3.5483419721
H       -6.6090673202   -0.6827200231    3.2918701287
H       -1.7155878616    0.9382933620    1.1366413446
H       -0.1152617919   -2.0711870079    0.2075965592
H       -1.3038129913    2.0146930134   -2.9030059374
H       -0.5974439385    0.4620846132   -3.4093996234
H        0.3670105577    1.6089390629   -2.4440356448
24   

C       -2.7889644805   -2.3645686435    0.7919289066
C       -3.8048769419    1.8038878922    2.3716838733
C       -4.6992246291   -0.4270465012    2.3637878774
C       -4.9017341981    2.2415509876    3.1228975863
C       -5.7941466659    0.0165964631    3.1151740484
C       -3.6726472466    0.4613024912    1.9735476248
C       -5.9068849117    1.3519822358    3.5024830838
C       -2.4708243603    0.0922586194    1.1849835925
C       -0.8159179975   -1.2735207655   -0.1204371556
C       -2.0577708428   -1.1355286286    0.6758838724
C       -0.5094786261    1.3306973256   -2.5028143282
N       -3.3477884836   -3.3835832989    0.8717183797
N       -0.3458310392   -0.5129112420   -1.0460099146
O       -1.0573585738    0.6712893641   -1.3614296326
Cl      -7.2749459332    1.8970249151    4.4407862568
H       -3.0455581953    2.5273021199    2.0973140614
H       -4.7004328875   -1.4758494773    2.1120143985
H       -4.9771305506    3.2819263786    3.4167032539
H       -6.5679178910   -0.6862496091    3.4021851821
H       -1.7888968250    0.9136419875    0.9981894054
H       -0.2858582748   -2.2126756302   -0.0076292531
H       -1.0543197208    2.2607645506   -2.6883612507
H       -0.5945716045    0.6892698380   -3.3852161422
H        0.5453966491    1.5674004660   -2.3330200142
24   

C       -2.7815145362   -2.3991857624    0.9062001447
C       -3.8490752694    1.8150177133    2.2950544780
C       -4.7193042203   -0.4236780727    2.3778538261
C       -4.9160587470    2.2594436333    3.0844318430
C       -5.7821413343    0.0260811645    3.1704868271
C       -3.7181746884    0.4642396675    1.9244043377
C       -5.8914508233    1.3686995559    3.5324060113
C       -2.5457850875    0.0888277651    1.0939484507
C       -0.9450626231   -1.3233069336   -0.2483162967
C       -2.1293498216   -1.1518267352    0.6163826867
C       -0.3577917712    1.4239860216   -2.4200586014
N       -3.2741787360   -3.4324646351    1.1221543420
N       -0.4089312742   -0.5383205065   -1.1185803382
O       -0.9991618123    0.7279503764   -1.3514160452
Cl      -7.2197169442    1.9213590488    4.5220378912
H       -3.1120383514    2.5399947788    1.9689784482
H       -4.7263270209   -1.4767026948    2.1449675352
H       -4.9908491648    3.3060388494    3.3553747189
H       -6.5336672660   -0.6777041674    3.5096172066
H       -1.8928887951    0.9194476933    0.8583431244
H       -0.4840867468   -2.3044857504   -0.2155125131
H       -0.7818495631    2.4278900570   -2.5132258280
H       -0.5086479550    0.8877010206   -3.3617671064
H        0.7157095800    1.5112858284   -2.2259056567
24   

C       -2.7625250196   -2.4233510535    0.9849671145
C       -3.9352852204    1.8079122041    2.1874700785
C       -4.7206368085   -0.4516682297    2.4169286991
C       -4.9681662877    2.2522093597    3.0208869597
C       -5.7478890957   -0.0019312717    3.2552863406
C       -3.7782036037    0.4466513881    1.8675737042
C       -5.8819790173    1.3510144661    3.5666277930
C       -2.6426556691    0.0745281782    0.9845659948
C       -1.0839655371   -1.3696797884   -0.3937241613
C       -2.2076454588   -1.1732093543    0.5384782330
C       -0.1696179383    1.4804500609   -2.3200962991
N       -3.1756841221   -3.4587969006    1.3228926948
N       -0.4793282197   -0.5709315366   -1.2063911282
O       -0.9251855666    0.7651822849   -1.3427002961
Cl      -7.1657111318    1.9035736008    4.6134287420
H       -3.2459834200    2.5420770836    1.7861938026
H       -4.7083395362   -1.5131777461    2.2270047683
H       -5.0639518272    3.3070133132    3.2501995351
H       -6.4520911617   -0.7139519151    3.6702699379
H       -2.0455862319    0.9233233410    0.6844174894
H       -0.6973056384   -2.3820540377   -0.4418704803
H       -0.4737745284    2.5310792116   -2.3245639230
H       -0.3451094612    1.0573175932   -3.3137135903
H        0.8989197937    1.4239185830   -2.0903771176
24   

C       -2.3715542403   -2.2612576559    1.4629268454
C       -4.0654348940    1.8165449155    2.5493227675
C       -4.7181146500   -0.4957460561    2.5172536617
C       -5.3424413031    2.1719956437    2.9978001384
C       -5.9946737454   -0.1334338268    2.9641589148
C       -3.7168106445    0.4766712306    2.2940665081
C       -6.3202386822    1.2005191598    3.2082769604
C       -2.3336624364    0.2081052386    1.8180531029
C       -0.3066549176   -1.1016173049    1.0097831080
C       -1.7047745089   -0.9856679089    1.4557584021
C        1.6027906990    1.9101153291    0.8969263430
N       -2.8641904791   -3.3168744788    1.4499392262
N        0.6380703922   -0.2364984354    0.8541275615
O        0.4308129829    1.1322241701    1.1392034270
Cl      -7.9146320290    1.6434239598    3.7656817491
H       -3.3370606741    2.6052484856    2.3986700414
H       -4.5665342689   -1.5520563864    2.3641782639
H       -5.5809181613    3.2124034773    3.1851721734
H       -6.7442402332   -0.8998985917    3.1245938138
H       -1.7528749792    1.1125366814    1.7462519357
H        0.0122760611   -2.1066334286    0.7545650799
H        1.3976338276    2.9623161862    1.1141245033
H        1.9072014088    1.8187172380   -0.1501607467
H        2.4207650750    1.5699363541    1.5392039917
