29   

C        1.8051220770    4.7066096265   -3.2802509454
C        1.9096615881    5.2524712976   -1.9990987719
C        1.1981868005    3.4612495021   -3.4547636296
C        1.4218091310    4.5473492974   -0.8928424842
C        0.7108758721    2.7569248828   -2.3481322199
C        0.8485549361    3.2749993255   -1.0405837177
C        0.2759675730    2.6257793909    0.1917838203
C       -0.6919811556   -1.5255707016   -0.0005333395
C        0.2354430625   -0.8698681272   -1.0321672833
C       -1.6710174012   -0.4827447317    0.5525887889
C        0.9697188599    0.3191611503   -0.4044036599
C       -0.9171521232    0.7123828865    1.1428516097
N       -0.0019222566    1.2700659541    0.1449486554
O       -0.0859388275    3.3083949125    1.1443469367
H        2.1786888899    5.2556648536   -4.1374144439
H        2.3610587671    6.2284112310   -1.8600493633
H        1.0895819860    3.0474577765   -4.4510164343
H        1.4934006273    4.9961229832    0.0931339390
H        0.1973777532    1.8186585096   -2.5206463218
H       -0.0945173951   -1.9376890509    0.8198953531
H       -1.2453342470   -2.3491884262   -0.4629188504
H       -0.3564526360   -0.5247062574   -1.8860009265
H        0.9616501740   -1.6025996829   -1.3974795280
H       -2.3062272184   -0.9339892574    1.3212399109
H       -2.3190821861   -0.1310846728   -0.2567533490
H        1.6386088666    0.7716245909   -1.1402211722
H        1.6067501274   -0.0439151656    0.4093676688
H       -1.6476898014    1.4606480997    1.4695511277
H       -0.3473247025    0.3961148880    2.0231835472
29   

C        1.8785084733    4.6475286912   -3.2837345207
C        2.0457693643    5.1570743057   -1.9934323265
C        1.1336026067    3.4817471096   -3.4782387745
C        1.4788441244    4.4951837114   -0.8980696840
C        0.5677954922    2.8210293901   -2.3822096816
C        0.7577989427    3.3052174171   -1.0702888146
C        0.1226482582    2.6820841782    0.1431417382
C       -0.6061604965   -1.5052701920   -0.0002297532
C        0.2652286832   -0.8015333141   -1.0491302293
C       -1.6089877120   -0.5085639769    0.5939228100
C        0.9714332955    0.4083329362   -0.4293109332
C       -0.8855935589    0.7065819540    1.1815933459
N       -0.0206725747    1.3103150615    0.1654569471
O       -0.3378685921    3.3865271599    1.0344786729
H        2.3137310294    5.1634282832   -4.1323730592
H        2.6077417515    6.0714236180   -1.8394750039
H        0.9829316020    3.0962880976   -4.4803701416
H        1.5977041769    4.9105076771    0.0978565029
H       -0.0388053037    1.9392289481   -2.5549294571
H        0.0298651558   -1.9036707527    0.7976481786
H       -1.1401425707   -2.3441832004   -0.4578897431
H       -0.3640358190   -0.4696233083   -1.8811981077
H        1.0081975138   -1.5010044536   -1.4446992084
H       -2.2056558981   -0.9944209355    1.3722812100
H       -2.2918087831   -0.1712226314   -0.1927048375
H        1.5967566306    0.8932686863   -1.1821712956
H        1.6494804423    0.0623559575    0.3582640141
H       -1.6363650817    1.4186168462    1.5413650531
H       -0.2792512205    0.4007757960    2.0408096468
29   

C        1.9172418341    4.5730241330   -3.2657272393
C        2.1254320227    5.0364167310   -1.9633478842
C        1.0663841549    3.4870281359   -3.4895601713
C        1.4897237337    4.4093908162   -0.8852766184
C        0.4321387325    2.8611189263   -2.4107180936
C        0.6528598945    3.3047590175   -1.0913114293
C       -0.0369390100    2.6934606582    0.0982890449
C       -0.5404260255   -1.5007786044    0.0025939976
C        0.2877762088   -0.7544775004   -1.0523565121
C       -1.5560376539   -0.5437351208    0.6396244577
C        0.9740737884    0.4646212362   -0.4284130549
C       -0.8519471000    0.6791392504    1.2351653990
N       -0.0318494650    1.3230502510    0.2065025505
O       -0.6073328894    3.4035325101    0.9178421852
H        2.4061337809    5.0621655416   -4.1008928212
H        2.7734423746    5.8876470883   -1.7871450677
H        0.8901685357    3.1358356054   -4.5000899506
H        1.6407344241    4.7847927434    0.1218930941
H       -0.2449542451    2.0343771810   -2.5954990662
H        0.1243657363   -1.8966962515    0.7778873182
H       -1.0620537461   -2.3452384114   -0.4591255987
H       -0.3690128453   -0.4258220963   -1.8642235062
H        1.0406260840   -1.4257626523   -1.4770145606
H       -2.1211057826   -1.0611778829    1.4211668912
H       -2.2660949537   -0.2099495452   -0.1241920105
H        1.5648692552    0.9792843388   -1.1893447407
H        1.6823405591    0.1271970794    0.3358425888
H       -1.6124363860    1.3600276863    1.6323544578
H       -0.2140924282    0.3734450884    2.0711229908
29   

C        1.9537026605    4.5060362884   -3.2911410577
C        2.2165423700    4.9180628359   -1.9810839180
C        1.0036881867    3.5085561236   -3.5293622869
C        1.5329467946    4.3300876313   -0.9102712197
C        0.3221703465    2.9216753589   -2.4574199249
C        0.5885659209    3.3207272298   -1.1339230950
C       -0.1414099641    2.7241810341    0.0409898917
C       -0.4752308236   -1.4453246251    0.0314762308
C        0.3247734281   -0.6782321932   -1.0309009000
C       -1.4862186161   -0.5070754718    0.7042571641
C        1.0098088652    0.5425335755   -0.4087693070
C       -0.7804054761    0.7150732303    1.2999777074
N        0.0032020765    1.3776856913    0.2551823682
O       -0.8203332631    3.4309238449    0.7753851706
H        2.4795890589    4.9653033341   -4.1207853726
H        2.9450488042    5.6988926031   -1.7935985649
H        0.7894653475    3.1950370537   -4.5449350704
H        1.7285616151    4.6627549128    0.1039778483
H       -0.4242248306    2.1580455038   -2.6475310502
H        0.2094094707   -1.8454882218    0.7869888249
H       -0.9987063315   -2.2884451373   -0.4306464282
H       -0.3513440063   -0.3477352149   -1.8260541009
H        1.0761849684   -1.3363722608   -1.4780880786
H       -2.0281515511   -1.0408923113    1.4911035998
H       -2.2169559281   -0.1704949238   -0.0386704089
H        1.5748687651    1.0726111675   -1.1790507790
H        1.7400498196    0.2089319424    0.3361540959
H       -1.5351733092    1.3810826493    1.7313776269
H       -0.1157157964    0.4048398305    2.1129005104
29   

C        1.9895110225    4.4306542744   -3.3297756215
C        2.2932148281    4.7752293851   -2.0090593730
C        0.9579351891    3.5244598307   -3.5926018601
C        1.5668771688    4.2125830212   -0.9528467427
C        0.2343293735    2.9629136812   -2.5347439770
C        0.5360635878    3.2990662160   -1.2029874935
C       -0.2392574638    2.7103111832   -0.0512225979
C       -0.4120256438   -1.4090488681    0.0438560904
C        0.3943535206   -0.6292089065   -1.0051472067
C       -1.4336585920   -0.4830378530    0.7191645544
C        1.0637223061    0.5939138237   -0.3700211149
C       -0.7383158790    0.7391765157    1.3275500592
N        0.0382313131    1.4124189910    0.2849942795
O       -1.0519163166    3.3874362861    0.5650805768
H        2.5481664176    4.8707038753   -4.1483488644
H        3.0872394983    5.4839743774   -1.8022260632
H        0.7139092286    3.2618373662   -4.6158647890
H        1.7970255568    4.4911854529    0.0701730549
H       -0.5720968854    2.2676174325   -2.7415075146
H        0.2685577886   -1.8130280467    0.8009019293
H       -0.9273702655   -2.2505030123   -0.4303479215
H       -0.2759461513   -0.2983817343   -1.8052310125
H        1.1548286427   -1.2789950169   -1.4491867334
H       -1.9756636242   -1.0270805541    1.4988738047
H       -2.1632458305   -0.1454013189   -0.0245501538
H        1.6282658650    1.1341132973   -1.1342837543
H        1.7909606791    0.2659114836    0.3802093091
H       -1.4945071215    1.3969348521    1.7688069135
H       -0.0699005514    0.4269172711    2.1365381417
29   

C        1.9597772320    4.4102608695   -3.3030147160
C        2.3244892218    4.6304121884   -1.9713058609
C        0.8475311050    3.6161170388   -3.5969084469
C        1.5784828776    4.0548856240   -0.9359369287
C        0.1047950242    3.0418474910   -2.5593021958
C        0.4674564300    3.2511289130   -1.2180446058
C       -0.3382812286    2.6448241007   -0.0958331504
C       -0.3290288768   -1.4195522325    0.0978551076
C        0.4854034557   -0.6210901379   -0.9315010886
C       -1.3826361802   -0.5166779857    0.7561660813
C        1.1142717645    0.6164796092   -0.2818338397
C       -0.7228576955    0.7185157772    1.3777609735
N        0.0518520592    1.4085301857    0.3454717757
O       -1.2834748515    3.2495576739    0.3933961491
H        2.5335600914    4.8603122349   -4.1055309854
H        3.1814626643    5.2529388503   -1.7397171145
H        0.5555866631    3.4506390889   -4.6279159296
H        1.8581498457    4.2372872221    0.0962021407
H       -0.7646168001    2.4350470484   -2.7887204402
H        0.3432407356   -1.8133214882    0.8675127249
H       -0.8180015544   -2.2690391796   -0.3898190965
H       -0.1735070690   -0.3032139319   -1.7463887275
H        1.2688112833   -1.2542658156   -1.3593001289
H       -1.9267057321   -1.0734409603    1.5253551998
H       -2.1060484581   -0.1927858652    0.0002879327
H        1.6808800337    1.1698133675   -1.0354470753
H        1.8321241800    0.3069738858    0.4850162931
H       -1.4954252731    1.3612945318    1.8127681273
H       -0.0581408738    0.4184863315    2.1943469209
29   

C        2.0135241594    4.4404970600   -3.3394677329
C        2.4312116656    4.4847831214   -2.0060939141
C        0.8140027783    3.8041183519   -3.6706060724
C        1.6517733947    3.8891113771   -1.0073823749
C        0.0384195122    3.2094882980   -2.6691505610
C        0.4557238615    3.2344389562   -1.3281257146
C       -0.4009551480    2.6217430880   -0.2491176929
C       -0.2782333500   -1.3978584191    0.1726471603
C        0.5546531953   -0.6283941325   -0.8638865784
C       -1.3707388629   -0.4891311931    0.7545084800
C        1.1374277476    0.6514740003   -0.2531815162
C       -0.7542779552    0.7849496144    1.3401302515
N        0.0389815591    1.4471841895    0.3035105214
O       -1.4451525004    3.1586354202    0.0978292402
H        2.6131460020    4.9064164677   -4.1135248795
H        3.3553257105    4.9878352012   -1.7443380178
H        0.4791085123    3.7780534531   -4.7015079998
H        1.9737852083    3.9386779553    0.0272550813
H       -0.9007000169    2.7304423755   -2.9253827699
H        0.3751077291   -1.7432743853    0.9808092173
H       -0.7340276902   -2.2778704969   -0.2925531694
H       -0.0833916945   -0.3615033080   -1.7131064377
H        1.3638059102   -1.2632973895   -1.2377534471
H       -1.9291323760   -1.0220623716    1.5302707637
H       -2.0748461488   -0.2137459234   -0.0380144979
H        1.7109769934    1.1804222810   -1.0186682108
H        1.8392158267    0.3949393742    0.5472906692
H       -1.5502524027    1.4312935154    1.7249070060
H       -0.1095100302    0.5337854415    2.1885639347
29   

C        2.0040071874    4.4822144220   -3.3445066927
C        2.4607582583    4.3647151977   -2.0288671961
C        0.7514330348    3.9697207722   -3.6920719866
C        1.6678471408    3.7296541807   -1.0656286703
C       -0.0370671547    3.3353889375   -2.7257706496
C        0.4186642098    3.1916231022   -1.4044098548
C       -0.4615813800    2.5462008064   -0.3670669440
C       -0.2496550916   -1.3958369257    0.2697913881
C        0.5921124659   -0.6574377392   -0.7817116015
C       -1.3544044884   -0.4743420978    0.8062013503
C        1.1566792368    0.6500643816   -0.2127202910
C       -0.7504336788    0.8229955352    1.3527193979
N        0.0449420713    1.4570684856    0.3002046945
O       -1.5792037559    2.9909078199   -0.1362023790
H        2.6141968650    4.9785568027   -4.0908919832
H        3.4260670720    4.7737572224   -1.7524430034
H        0.3850967932    4.0707636079   -4.7075436404
H        2.0224249348    3.6585755453   -0.0429621830
H       -1.0177502961    2.9554410639   -2.9931098967
H        0.3951372072   -1.7093365667    1.0975036824
H       -0.6944866607   -2.2939541361   -0.1708520530
H       -0.0364465179   -0.4275110321   -1.6487249682
H        1.4109667094   -1.2989271426   -1.1216793509
H       -1.9186232390   -0.9829551443    1.5939200094
H       -2.0511135768   -0.2312333811   -0.0033973397
H        1.7303198221    1.1521767369   -0.9953676411
H        1.8531196971    0.4317314489    0.6035831345
H       -1.5513341915    1.4789289324    1.7104692850
H       -0.1102708370    0.6047885845    2.2136210475
29   

C        1.9520995661    4.5616886335   -3.2966203782
C        2.4479142240    4.2845382859   -2.0202558703
C        0.6635370838    4.1491853798   -3.6430008161
C        1.6581560684    3.5898808287   -1.0962458673
C       -0.1211860261    3.4548750414   -2.7158434462
C        0.3702120281    3.1489363833   -1.4342014986
C       -0.5136245038    2.4340216378   -0.4489236937
C       -0.2068805420   -1.4248393677    0.4093632188
C        0.6235594532   -0.7225142895   -0.6741456521
C       -1.3228122409   -0.4943627239    0.9040898565
C        1.1701534795    0.6178455312   -0.1674010818
C       -0.7339407933    0.8331124041    1.3926495212
N        0.0519997049    1.4359654201    0.3146187933
O       -1.6806583389    2.7777435659   -0.3024833205
H        2.5601009322    5.1039097352   -4.0122304602
H        3.4419673150    4.6165173726   -1.7424520821
H        0.2664300003    4.3729971114   -4.6267755791
H        2.0482666461    3.4027620863   -0.1016267881
H       -1.1284051434    3.1515854472   -2.9834156845
H        0.4422037497   -1.6929680329    1.2494978892
H       -0.6401000950   -2.3470677702    0.0086906100
H       -0.0091374023   -0.5410960918   -1.5496569586
H        1.4510931621   -1.3668121156   -0.9867783089
H       -1.8813706841   -0.9746058065    1.7132797677
H       -2.0220836963   -0.2958800422    0.0844576331
H        1.7270116674    1.0877587750   -0.9810258815
H        1.8764607577    0.4484544553    0.6520657123
H       -1.5417763188    1.4951509827    1.7228632212
H       -0.0907676287    0.6598972563    2.2614430753
29   

C        1.9576457398    4.6534318755   -3.3048710111
C        2.4834967998    4.2306650719   -2.0824014855
C        0.6397864205    4.3349450871   -3.6362516552
C        1.6946936394    3.4849490725   -1.1979881731
C       -0.1435973428    3.5894616429   -2.7488446923
C        0.3730958681    3.1380447618   -1.5192833069
C       -0.5151527882    2.3495080386   -0.5965922448
C       -0.1957486448   -1.4182320073    0.4911354976
C        0.6390710986   -0.7725136830   -0.6224434815
C       -1.3094756347   -0.4601246393    0.9335640389
C        1.1886043847    0.5897315323   -0.1819591317
C       -0.7168891236    0.8878902766    1.3592035189
N        0.0777577817    1.4404006854    0.2603439713
O       -1.7123191489    2.6048727285   -0.5290699710
H        2.5656332533    5.2342046445   -3.9895688676
H        3.5016997023    4.4892181103   -1.8142184109
H        0.2192990925    4.6686874723   -4.5782794464
H        2.1177868693    3.1954378291   -0.2425233426
H       -1.1708835948    3.3555538821   -3.0104229146
H        0.4496021447   -1.6466075906    1.3457052073
H       -0.6308190568   -2.3574779825    0.1343254609
H        0.0087222581   -0.6326944812   -1.5072667055
H        1.4653805495   -1.4335656721   -0.9016496545
H       -1.8743850819   -0.8977462601    1.7622052625
H       -2.0038921033   -0.2999658846    0.1014168131
H        1.7402654394    1.0144012984   -1.0234635266
H        1.8982357234    0.4596606298    0.6418436230
H       -1.5235431847    1.5693645033    1.6508508610
H       -0.0802235313    0.7545644278    2.2396937466
29   

C        1.9379970265    4.7666771500   -3.2793090410
C        2.4990911340    4.2038504895   -2.1323673589
C        0.5950898082    4.5326157577   -3.5737638677
C        1.7207565962    3.4034737907   -1.2870287281
C       -0.1775005189    3.7324551360   -2.7257221112
C        0.3695258337    3.1418234348   -1.5677926079
C       -0.5160935644    2.2740913200   -0.7136222254
C       -0.2138864271   -1.4025498023    0.6069666930
C        0.6336747624   -0.8211195090   -0.5307169797
C       -1.3294996477   -0.4182116988    0.9791069589
C        1.1836104078    0.5613726066   -0.1601432375
C       -0.7380477994    0.9501016539    1.3384935671
N        0.0788736466    1.4458954107    0.2283664508
O       -1.7305411660    2.4451644054   -0.7227473015
H        2.5386701560    5.3885472460   -3.9336926453
H        3.5385420257    4.3956100907   -1.8909664785
H        0.1469384138    4.9712410688   -4.4582887296
H        2.1843815536    3.0175299755   -0.3869459014
H       -1.2218104342    3.5614110259   -2.9682202626
H        0.4206492002   -1.5838309342    1.4806673722
H       -0.6472576481   -2.3592277057    0.2974810815
H        0.0123020614   -0.7279427524   -1.4279722439
H        1.4604657699   -1.4985654165   -0.7658160791
H       -1.9085309667   -0.8076523108    1.8218588448
H       -2.0110032435   -0.3030748213    0.1289927334
H        1.7361481862    0.9360379026   -1.0247368326
H        1.8907469057    0.4741947868    0.6714587286
H       -1.5473670095    1.6491442251    1.5764488798
H       -0.1186225881    0.8636981927    2.2369004194
29   

C        1.8843180900    4.6142152895   -3.5347713038
C        2.1087693622    3.2655955349   -3.2594412915
C        0.8792083113    5.2956691815   -2.8508195324
C        1.3349775302    2.6027751988   -2.2986016715
C        0.1092918357    4.6286178457   -1.8925895978
C        0.3195241318    3.2657482849   -1.5883655174
C       -0.5218261705    2.6362666259   -0.5067391755
C        0.1629152031   -1.4314043874    0.6245739900
C        1.2845707431   -0.5652016691    0.0355368345
C       -1.1946187001   -0.9627523736    0.0853276791
C        1.0245151477    0.9123479415    0.3452777681
C       -1.4061411520    0.5279928714    0.3652741800
N       -0.2880606062    1.3022504040   -0.1759871354
O       -1.5363817222    3.1995287666   -0.1091435114
H        2.4821427682    5.1281742820   -4.2792062466
H        2.8799010721    2.7270020200   -3.7986702295
H        0.6926402264    6.3432889489   -3.0589118841
H        1.5230572181    1.5468214328   -2.1553995054
H       -0.6644561371    5.1810381625   -1.3684179411
H        0.1708550019   -1.3457133377    1.7166236169
H        0.3248407422   -2.4829851753    0.3671494135
H        1.3270740872   -0.7101698795   -1.0488658515
H        2.2479178263   -0.8688160168    0.4568227007
H       -2.0015596487   -1.5423852464    0.5444973497
H       -1.2309445597   -1.1306846100   -0.9958545563
H        1.8350641585    1.5289502617   -0.0507436697
H        1.0319011666    1.0558293051    1.4312902092
H       -2.3527840820    0.8435133001   -0.0871619262
H       -1.4788592662    0.6978255564    1.4451076910
29   

C        1.9442731270    4.5898244137   -3.4600813168
C        2.0409934134    3.2070855844   -3.2987280880
C        1.0114447515    5.3063177872   -2.7105685035
C        1.2120727534    2.5446799675   -2.3850198052
C        0.1859773180    4.6394970634   -1.7992914476
C        0.2739641300    3.2451463553   -1.6088681681
C       -0.6309372608    2.5946446853   -0.5969014588
C        0.2316532491   -1.3936547623    0.6690272470
C        1.3069855660   -0.5094070801    0.0239001243
C       -1.1534605706   -0.9865410239    0.1514994153
C        1.0102455650    0.9684911484    0.2974626507
C       -1.4113017125    0.5022115482    0.4007209943
N       -0.3338071959    1.3029228027   -0.1837076268
O       -1.6967363631    3.1201332778   -0.2940672226
H        2.5837506667    5.1038557672   -4.1690130935
H        2.7537373091    2.6436079098   -3.8903259490
H        0.9226469616    6.3798669534   -2.8339388941
H        1.2919362640    1.4664752877   -2.3181024113
H       -0.5366826590    5.2109092266   -1.2249463227
H        0.2645686681   -1.2749468347    1.7574936974
H        0.4224108722   -2.4464983136    0.4377942473
H        1.3232908829   -0.6854226906   -1.0565235538
H        2.2914861830   -0.7699979367    0.4246103412
H       -1.9285532168   -1.5823430438    0.6436427222
H       -1.2090070686   -1.1827971709   -0.9241422930
H        1.7880725565    1.5925171949   -0.1489609514
H        1.0535665683    1.1471949042    1.3773283480
H       -2.3796434081    0.7697133566   -0.0364841619
H       -1.4663513186    0.6958932143    1.4774496486
29   

C        2.0244825958    4.5798107020   -3.3812297785
C        2.0125687455    3.1844461599   -3.3307036923
C        1.1474834381    5.3070737279   -2.5749327253
C        1.1307516261    2.5196872818   -2.4700307991
C        0.2688256211    4.6376424170   -1.7165250282
C        0.2538436721    3.2319678160   -1.6370129072
C       -0.7185122337    2.5597071338   -0.7068303022
C        0.2716489902   -1.3418498928    0.6906431486
C        1.3120282078   -0.4458232543    0.0056053582
C       -1.1333760603   -0.9749615411    0.1974744399
C        0.9914272039    1.0304984179    0.2595238009
C       -1.4215054691    0.5107256992    0.4314669398
N       -0.3741550529    1.3262138034   -0.1870526446
O       -1.8289440877    3.0432438458   -0.5179149465
H        2.7038796306    5.0964054578   -4.0500376523
H        2.6807659071    2.6151585409   -3.9670417462
H        1.1415250290    6.3905289019   -2.6161706963
H        1.1198184479    1.4357149625   -2.4744718658
H       -0.4172499388    5.2112556936   -1.1011368032
H        0.3260530533   -1.2034288731    1.7758941543
H        0.4809349830   -2.3940634803    0.4729262501
H        1.3068631038   -0.6403977813   -1.0717033001
H        2.3111850280   -0.6784058432    0.3868190940
H       -1.8835172821   -1.5817723000    0.7141942912
H       -1.2070389704   -1.1881936339   -0.8739065171
H        1.7449220352    1.6583797268   -0.2213237692
H        1.0620737801    1.2319786872    1.3338573150
H       -2.4062908875    0.7457616940    0.0129054797
H       -1.4582606806    0.7190625799    1.5060897275
29   

C        2.0563993689    4.5566341151   -3.2888255050
C        1.9736791649    3.1633324038   -3.3478500288
C        1.2162779374    5.2636436627   -2.4258004396
C        1.0575696644    2.4799349764   -2.5394217527
C        0.3030651295    4.5754848574   -1.6195364988
C        0.2217359212    3.1717670371   -1.6503990003
C       -0.7972227827    2.4656673114   -0.7978951973
C        0.3209091771   -1.3298213177    0.7169882218
C        1.3227446301   -0.4144042163    0.0002404209
C       -1.1056522021   -0.9947931224    0.2637475651
C        0.9794813359    1.0563786215    0.2561074489
C       -1.4196904195    0.4847870278    0.5041908163
N       -0.4063923041    1.3168197263   -0.1485420159
O       -1.9472899374    2.8832148543   -0.7330793975
H        2.7615950934    5.0884342986   -3.9178349119
H        2.6129346471    2.6119024467   -4.0281385969
H        1.2644095736    6.3460600799   -2.3850123818
H        0.9877478189    1.4004321758   -2.6159892843
H       -0.3598693482    5.1305132073   -0.9633857522
H        0.4032663460   -1.1870578766    1.7998758737
H        0.5463161294   -2.3780118991    0.4959200708
H        1.2915463557   -0.6133411995   -1.0758338226
H        2.3369520375   -0.6244324926    0.3538146218
H       -1.8270751114   -1.6172463037    0.8022455943
H       -1.2053119956   -1.2117024376   -0.8048779741
H        1.7055674184    1.6942990355   -0.2527020054
H        1.0795313591    1.2677810005    1.3261222087
H       -2.4232636750    0.6949517667    0.1187803534
H       -1.4271759309    0.6956657680    1.5787630222
29   

C        2.0989296512    4.5257178919   -3.2484955335
C        1.9387690312    3.1466008033   -3.4083250330
C        1.3076735937    5.2131375197   -2.3245316558
C        0.9933970629    2.4570590410   -2.6399486660
C        0.3647487218    4.5191041758   -1.5582316032
C        0.2081405226    3.1291489630   -1.6930707911
C       -0.8442122980    2.4050396348   -0.8950834800
C        0.3295481486   -1.2700581077    0.7522143436
C        1.3086387979   -0.3507000463    0.0088011901
C       -1.1112557562   -0.9421211230    0.3387153159
C        0.9655332221    1.1194877884    0.2679699341
C       -1.4251248978    0.5364039553    0.5877353599
N       -0.4330125161    1.3659064177   -0.0996549513
O       -2.0180241317    2.7482669348   -0.9600292524
H        2.8264967145    5.0627934087   -3.8468052198
H        2.5406051342    2.6123076201   -4.1348625839
H        1.4163609705    6.2854813671   -2.2067770207
H        0.8620894695    1.3902342964   -2.7851365383
H       -0.2626446616    5.0582615972   -0.8558933208
H        0.4406932409   -1.1266874489    1.8323937517
H        0.5538031279   -2.3172725126    0.5253319092
H        1.2510448969   -0.5520365790   -1.0657838961
H        2.3326896826   -0.5548966236    0.3364927139
H       -1.8140975569   -1.5681374106    0.8972007068
H       -1.2398873987   -1.1599774762   -0.7267245160
H        1.6736086339    1.7562734692   -0.2675357413
H        1.0950460892    1.3397045447    1.3329711275
H       -2.4426781083    0.7421087017    0.2388666584
H       -1.3976828453    0.7496212952    1.6613825195
29   

C        2.1036019308    4.4907738676   -3.2036404610
C        1.8690548174    3.1392555072   -3.4732413928
C        1.3690973385    5.1375508571   -2.2057264851
C        0.9046654996    2.4360098669   -2.7418843754
C        0.4066549854    4.4304544101   -1.4763509650
C        0.1739387177    3.0681984938   -1.7274923633
C       -0.8892720635    2.3177926723   -0.9654632325
C        0.3475977733   -1.2116571544    0.7975673759
C        1.3039800532   -0.2719122043    0.0488840922
C       -1.1053921799   -0.9003435969    0.4119669321
C        0.9428594709    1.1920030616    0.3203676884
C       -1.4329054274    0.5727707046    0.6766053452
N       -0.4638988048    1.4114957359   -0.0312514368
O       -2.0758168338    2.5442644298   -1.1645103634
H        2.8460556872    5.0386119686   -3.7732271243
H        2.4284881329    2.6377342463   -4.2549439526
H        1.5378050613    6.1890032449   -2.0017967547
H        0.7163555338    1.3914457528   -2.9654910059
H       -0.1748950368    4.9382282963   -0.7140716226
H        0.4742855415   -1.0773275628    1.8771260132
H        0.5825419975   -2.2534822815    0.5569741744
H        1.2357050094   -0.4666423728   -1.0264087144
H        2.3351496069   -0.4631861304    0.3616719819
H       -1.7894916429   -1.5393397798    0.9788837877
H       -1.2508124099   -1.1129322445   -0.6524787316
H        1.6330725633    1.8407370886   -0.2249553734
H        1.0826439809    1.4127199908    1.3838932140
H       -2.4613764192    0.7713797338    0.3572408092
H       -1.3812269457    0.7818373172    1.7500901037
29   

C        2.0565430475    4.4477698420   -3.1558480750
C        1.7403814402    3.1434433122   -3.5480787053
C        1.4013645946    5.0234813855   -2.0632461689
C        0.7716494046    2.4161648933   -2.8466074454
C        0.4342729982    4.2931012774   -1.3634903325
C        0.1149901674    2.9794732965   -1.7455068607
C       -0.9363997098    2.1890865916   -1.0064844303
C        0.3889959149   -1.1655494825    0.8993529149
C        1.3185120724   -0.1964909533    0.1530970907
C       -1.0725167217   -0.9068260960    0.5051821872
C        0.9037616938    1.2563944250    0.4095582843
C       -1.4487485640    0.5570718103    0.7558127335
N       -0.5057580655    1.4164723704    0.0385988742
O       -2.1141816496    2.2558904366   -1.3332671271
H        2.8025348934    5.0141661410   -3.7021948981
H        2.2405119402    2.6973161248   -4.4003704611
H        1.6367129211    6.0380866918   -1.7619250015
H        0.5210157517    1.4085130354   -3.1606233468
H       -0.0814616002    4.7453652002   -0.5231289533
H        0.5046201275   -1.0223670981    1.9789510724
H        0.6610821786   -2.1997545454    0.6649942212
H        1.2667156485   -0.4004608746   -0.9215753876
H        2.3530588383   -0.3494213569    0.4755756870
H       -1.7371144299   -1.5634307191    1.0751266689
H       -1.2067848375   -1.1330403033   -0.5579925700
H        1.5752066915    1.9236295634   -0.1373219680
H        1.0242861365    1.4928237820    1.4719907316
H       -2.4832771224    0.7235529831    0.4375930832
H       -1.4028601267    0.7785046241    1.8270499721
29   

C        2.0604694375    4.4440652693   -3.1556830795
C        1.6625147299    3.2037608936   -3.6644145689
C        1.4914397239    4.9263194785   -1.9730880714
C        0.6971699379    2.4466717833   -2.9903364219
C        0.5275379599    4.1668962429   -1.3003987457
C        0.1238952267    2.9175151631   -1.8028996571
C       -0.9153942193    2.0836017344   -1.0971213059
C        0.4074770941   -1.1131109782    0.9826495690
C        1.3377823441   -0.1361120229    0.2473900908
C       -1.0472603099   -0.8944932624    0.5417373664
C        0.8830217345    1.3125730656    0.4596733476
C       -1.4592263200    0.5658726395    0.7525164935
N       -0.5168262311    1.4292583557    0.0394896749
O       -2.0533732220    1.9966185538   -1.5402649248
H        2.8040061160    5.0333746650   -3.6807272947
H        2.0966600689    2.8304487201   -4.5851316880
H        1.7921030801    5.8911897519   -1.5803657781
H        0.3823067788    1.4896076673   -3.3928803737
H        0.0812231297    4.5464867626   -0.3875571793
H        0.4876958783   -0.9488863283    2.0624054792
H        0.7090685011   -2.1448304875    0.7748389454
H        1.3246261776   -0.3622182098   -0.8241453304
H        2.3649231837   -0.2590881814    0.6044192723
H       -1.7140549407   -1.5537996713    1.1059267367
H       -1.1466698372   -1.1440302623   -0.5201363993
H        1.5563634435    1.9803899672   -0.0837077878
H        0.9649179226    1.5758978160    1.5194076956
H       -2.4890459541    0.7078630405    0.4079659461
H       -1.4433673029    0.8100405774    1.8196499822
29   

C        1.8501891274    4.4523161123   -3.1940661422
C        0.5185081394    4.5713999037   -2.7843851750
C        2.7419270776    3.6775801875   -2.4462221102
C        0.0784906654    3.9138730771   -1.6296048420
C        2.2998972095    3.0201625358   -1.2926830276
C        0.9593508783    3.1269401888   -0.8775414477
C        0.4508480617    2.4438189795    0.3644946993
C       -1.2071236035   -1.1875490839    0.0749883742
C       -0.6637617927   -0.4025451948   -1.1283793624
C       -1.2896917638   -0.2768345211    1.3084486376
C        0.6866006798    0.2437798234   -0.7960666146
C        0.0739894608    0.3585588494    1.5973269562
N        0.5268349420    1.0730192780    0.4028019599
O       -0.0086205611    3.0988394780    1.2918109396
H        2.1919857258    4.9659447132   -4.0857805967
H       -0.1732690945    5.1788968545   -3.3570556734
H        3.7773427849    3.5915362889   -2.7562241543
H       -0.9522151254    4.0187942160   -1.3066933076
H        2.9970005025    2.4288146172   -0.7088160766
H       -0.5417329869   -2.0302525761    0.2900830128
H       -2.1980486088   -1.5905165447   -0.1581042069
H       -1.3784423543    0.3821952144   -1.3986687997
H       -0.5549263681   -1.0685514383   -1.9898925197
H       -1.6243484463   -0.8510405948    2.1778326383
H       -2.0226319328    0.5167228640    1.1268301069
H        1.0296786569    0.8049238392   -1.6684163259
H        1.4340401548   -0.5327249419   -0.6025834685
H       -0.0066024905    1.0223413925    2.4648117850
H        0.8014653698   -0.4171675118    1.8573482463
29   

C        1.8805562800    4.5310231538   -3.1485646252
C        0.5728829191    4.7477745277   -2.7042234762
C        2.7026543636    3.6234636667   -2.4746126627
C        0.0856306654    4.0526737700   -1.5912064941
C        2.2138511710    2.9287566132   -1.3625750241
C        0.8909203757    3.1245347830   -0.9182011646
C        0.3294387656    2.4302020805    0.2927165648
C       -1.1410844894   -1.2576489793    0.1695986603
C       -0.6365680227   -0.4990188678   -1.0663266766
C       -1.2405201980   -0.3054156407    1.3694704947
C        0.6941517897    0.2054093701   -0.7746733210
C        0.1058249138    0.3820417491    1.6189259375
N        0.5249391812    1.0711664282    0.3972186980
O       -0.2424150036    3.0717040053    1.1662289917
H        2.2590066812    5.0734053628   -4.0078524252
H       -0.0634293913    5.4606590662   -3.2165266287
H        3.7219838401    3.4645356621   -2.8081998547
H       -0.9246836818    4.2370774529   -1.2399553828
H        2.8644335283    2.2414348980   -0.8326758962
H       -0.4463625913   -2.0700749487    0.4070406987
H       -2.1207957345   -1.7001731888   -0.0378773531
H       -1.3807335983    0.2507292621   -1.3558408676
H       -0.5144785810   -1.1911406399   -1.9052072544
H       -1.5482508906   -0.8574265159    2.2627885526
H       -2.0001209600    0.4576492166    1.1673114398
H        0.9973922934    0.7491045280   -1.6720247914
H        1.4729165842   -0.5364005958   -0.5689432286
H        0.0154303327    1.0733989270    2.4637427185
H        0.8599361871   -0.3613422424    1.8967667929
29   

C        1.9376477351    4.6024056528   -3.1052365747
C        0.6597671704    4.9009768713   -2.6250774721
C        2.6759778938    3.5711112407   -2.5192827203
C        0.1165237223    4.1620165922   -1.5677071882
C        2.1315705564    2.8326776518   -1.4626283327
C        0.8294446242    3.1020724471   -0.9897505518
C        0.2101696836    2.3915637721    0.1829030555
C       -1.0915164649   -1.3332908683    0.2658952386
C       -0.6327228251   -0.6143946541   -1.0099510651
C       -1.2015982742   -0.3310597605    1.4227152113
C        0.6790313436    0.1445736184   -0.7749348984
C        0.1271626422    0.4071268279    1.6179648682
N        0.5103726477    1.0558023403    0.3624348831
O       -0.4541208316    3.0147638783    1.0035873413
H        2.3597904096    5.1785632665   -3.9210791181
H        0.0901325701    5.7117574232   -3.0651887490
H        3.6762056759    3.3514649941   -2.8754500689
H       -0.8689809148    4.4146812773   -1.1889673136
H        2.7314052359    2.0592506211   -0.9957722172
H       -0.3673122083   -2.1121503699    0.5264137000
H       -2.0600111513   -1.8146207706    0.0953110856
H       -1.4059020056    0.0979354328   -1.3174575562
H       -0.5030076115   -1.3379591500   -1.8207167295
H       -1.4786389260   -0.8507034161    2.3449657735
H       -1.9875947773    0.3986624301    1.1991126688
H        0.9382529348    0.6616268083   -1.7013162199
H        1.4875380269   -0.5616593213   -0.5588897112
H        0.0289835559    1.1337903757    2.4318298240
H        0.9072339994   -0.3003321820    1.9169716890
29   

C        1.9962358200    4.6922614355   -3.0681432562
C        0.7560048344    5.0577074295   -2.5403909042
C        2.6430546383    3.5508480479   -2.5900028881
C        0.1566419748    4.2747674624   -1.5470713490
C        2.0430537055    2.7682799506   -1.5970505723
C        0.7680906892    3.0993706704   -1.0844893482
C        0.0934719097    2.3673443462    0.0458908221
C       -1.0412495048   -1.3818085607    0.3746458452
C       -0.6362095932   -0.7170833949   -0.9468046534
C       -1.1661897533   -0.3204902917    1.4750783182
C        0.6514098932    0.0994678114   -0.7835560038
C        0.1391293239    0.4730975754    1.6028131444
N        0.4849115239    1.0651225231    0.3085310300
O       -0.6531413513    2.9673497709    0.8122298423
H        2.4623040955    5.3022739130   -3.8339203117
H        0.2590401729    5.9545811430   -2.8928025601
H        3.6191109144    3.2805557754   -2.9770456684
H       -0.7980106990    4.5855681826   -1.1338775076
H        2.5928564603    1.9191548762   -1.2081623643
H       -0.2832159211   -2.1180756755    0.6613597802
H       -1.9943732764   -1.9063586105    0.2513710784
H       -1.4414508432   -0.0500339305   -1.2730679756
H       -0.4977247275   -1.4776088757   -1.7215253451
H       -1.4086349285   -0.7962463949    2.4301212777
H       -1.9817533814    0.3674965152    1.2262869746
H        0.8607608575    0.5800495507   -1.7419128646
H        1.4919260033   -0.5651227132   -0.5576576882
H        0.0280541274    1.2421600619    2.3750766511
H        0.9475889209   -0.1890852674    1.9287496415
29   

C        2.0467096294    4.7868499926   -3.0195126942
C        0.8528156157    5.2003125006   -2.4266000120
C        2.5978796545    3.5518842330   -2.6747596915
C        0.2017666280    4.3728056510   -1.5046811491
C        1.9472224253    2.7240210117   -1.7527706743
C        0.7089210699    3.1030459687   -1.1822024210
C       -0.0175743968    2.3397513217   -0.1006412949
C       -0.9907947709   -1.4163052548    0.4929081855
C       -0.6335534303   -0.8193556013   -0.8727004742
C       -1.1450170538   -0.2916289473    1.5234543270
C        0.6227908077    0.0549248187   -0.7841663832
C        0.1299567275    0.5581030004    1.5825842703
N        0.4487764766    1.0798805817    0.2510465536
O       -0.8480336185    2.9068458516    0.6027355876
H        2.5530020673    5.4310272761   -3.7297600812
H        0.4315991986    6.1686573237   -2.6724626478
H        3.5427662468    3.2430128756   -3.1075808881
H       -0.7148831862    4.7285292691   -1.0444229111
H        2.4460221305    1.8076928236   -1.4638829303
H       -0.1987358902   -2.1012202212    0.8129082687
H       -1.9231218324   -1.9855184923    0.4182311669
H       -1.4699180675   -0.2051086105   -1.2234761293
H       -0.4777743489   -1.6196725148   -1.6028004535
H       -1.3588114253   -0.7129521026    2.5103237813
H       -1.9897667778    0.3464763767    1.2412793052
H        0.7844103933    0.4889236350   -1.7737289123
H        1.4950465419   -0.5620674266   -0.5438944673
H       -0.0053510848    1.3723732247    2.3029482745
H        0.9652866815   -0.0497675486    1.9444634608
