29   

C        1.1735312810   -1.0431276020    0.1871509732
C        1.5363805445   -2.1907709712    0.8944931702
C        1.0114494479    0.1671784456    0.8653275990
C        1.7287470121   -2.1274757331    2.2788033198
C        1.1991417172    0.2266802986    2.2516109955
C        1.9382054455   -0.1092187429    6.4307484599
C        2.8817374222   -1.1663164081    6.1928518062
C        1.5456461265   -0.9249575601    2.9872590176
C        1.2015942392    0.0118984549    5.2870464126
C       -0.0428085619    0.8342774760    5.2069153462
C       -2.2510758680    1.4669692864    4.3095257312
C       -1.4020910744   -0.8449446783    3.9421849967
N        2.7112907874   -1.6404444890    4.9863082480
N        1.7321341875   -0.8968843487    4.3879068174
N       -1.1491255294    0.5156042335    4.4080349161
O       -0.1681579353    1.7764317741    5.9949470229
H        1.0269866470   -1.0904968239   -0.8863224724
H        1.6719906282   -3.1317500907    0.3726350981
H        0.7458427432    1.0637977035    0.3162492090
H        2.0139856472   -3.0245253412    2.8180221094
H        1.0879153771    1.1820970064    2.7504528820
H        1.7871007681    0.4283640788    7.3599162780
H        3.6014011082   -1.5377090870    6.9132645386
H       -2.8574151699    1.2581684993    3.4224077256
H       -1.8682576254    2.4884820034    4.2128309928
H       -2.8855208462    1.4068790727    5.1994187328
H       -2.4542956521   -1.1035894237    4.0978959781
H       -0.8143783496   -1.5773929197    4.5036212574
H       -1.1800121194   -0.9383499359    2.8749799468
29   

C        1.1635666446   -1.0070580912    0.1712597857
C        1.5427956702   -2.1522007662    0.8737239787
C        0.9899441902    0.1988500481    0.8538382173
C        1.7389218580   -2.0910851657    2.2576686135
C        1.1819698697    0.2563738330    2.2394515730
C        1.8375336831   -0.1725293270    6.4581991544
C        2.7842751795   -1.2278618766    6.2218018369
C        1.5437915328   -0.8933097517    2.9715706339
C        1.1649125257    0.0005662406    5.2839304068
C       -0.0354678080    0.8745839356    5.1241344206
C       -2.2610668089    1.4463042676    4.2164088751
C       -1.4208652047   -0.8956114734    4.0223847452
N        2.6733944364   -1.6467540286    4.9874527206
N        1.7287160745   -0.8712500517    4.3734629259
N       -1.1723853924    0.4927987872    4.4004211579
O       -0.0809562703    1.9386467130    5.7490483772
H        1.0134459112   -1.0525755606   -0.9017864720
H        1.6875037548   -3.0898319172    0.3483462492
H        0.7124273771    1.0943288325    0.3087618642
H        2.0351858376   -2.9874932613    2.7919014245
H        1.0644707164    1.2114837804    2.7371722003
H        1.6532312782    0.3399926571    7.3952159454
H        3.4658973034   -1.6349570242    6.9597113215
H       -2.8707965037    1.1658901460    3.3516301074
H       -1.8666962573    2.4501649264    4.0266233873
H       -2.8955342721    1.4745660066    5.1077239028
H       -2.4746261317   -1.1446442412    4.1829609086
H       -0.8374061273   -1.5892280079    4.6355671997
H       -1.1842063164   -1.0572318870    2.9663340044
29   

C        1.1451342267   -0.9751139648    0.1833479365
C        1.5224641875   -2.1155176146    0.8941916201
C        0.9899302222    0.2393075890    0.8545189891
C        1.7333686990   -2.0414178438    2.2754402731
C        1.1979281792    0.3103189912    2.2369985543
C        1.7900182159   -0.1635749821    6.4898657311
C        2.7242659484   -1.2321983663    6.2603731149
C        1.5558801013   -0.8346956198    2.9794502617
C        1.1735022961    0.0527941478    5.2934849039
C        0.0269390464    0.9823926843    5.0549213552
C       -2.2122103022    1.5261760023    4.1465581372
C       -1.4304565646   -0.8476752408    4.1750249148
N        2.6564863914   -1.6129640474    5.0100370212
N        1.7509629454   -0.8029417044    4.3808963546
N       -1.1541223159    0.5630456238    4.4311404710
O        0.0913661450    2.1411820182    5.4759504359
H        0.9826666276   -1.0305718026   -0.8874097942
H        1.6536647450   -3.0598085472    0.3773343138
H        0.7149918832    1.1317179562    0.3030904600
H        2.0265715924   -2.9355365767    2.8150539618
H        1.0984561325    1.2749086732    2.7200072021
H        1.5871593926    0.3362457376    7.4295964764
H        3.3689412136   -1.6728715970    7.0120683050
H       -2.7936133055    1.2031604202    3.2771491544
H       -1.7934550887    2.5095888913    3.9087831161
H       -2.8796456360    1.6218674514    5.0084507098
H       -2.4923711556   -1.0581357486    4.3368891272
H       -0.8718841114   -1.4958235613    4.8576001822
H       -1.1774142340   -1.1077486673    3.1425330740
29   

C        1.1773134525   -0.9930871365    0.1561132555
C        1.5429414213   -2.1479190131    0.8492099142
C        1.0553310281    0.2163024703    0.8425185277
C        1.7733705362   -2.0933725748    2.2283135249
C        1.2841974337    0.2682355307    2.2224353906
C        1.8016641846   -0.3656238285    6.4950472268
C        2.7256387758   -1.4380811284    6.2412782404
C        1.6280899719   -0.8918205797    2.9490824462
C        1.2447127771   -0.0707515946    5.2871170736
C        0.1549721515    0.9173344362    5.0037230148
C       -2.0994295572    1.4828816952    4.1265693339
C       -1.3960045523   -0.9097160625    4.3178173038
N        2.7047147720   -1.7440089242    4.9685040146
N        1.8384089579   -0.8837426295    4.3497872294
N       -1.0752160611    0.5052876217    4.4797625340
O        0.3357994361    2.1149169581    5.2399922055
H        0.9987148796   -1.0333124889   -0.9127314599
H        1.6493719757   -3.0885691946    0.3202280358
H        0.7906522218    1.1202920365    0.3050937255
H        2.0558841564   -2.9997329737    2.7528709907
H        1.2143580318    1.2320099264    2.7121571959
H        1.5767065500    0.0908985174    7.4513688570
H        3.3322637710   -1.9328222867    6.9909965700
H       -2.6251271135    1.1639735146    3.2209620188
H       -1.6621274624    2.4640151939    3.9155595428
H       -2.8210788920    1.5861920635    4.9425663260
H       -2.4682357772   -1.0731296022    4.4651430027
H       -0.8753164397   -1.5249522444    5.0585373984
H       -1.1251235166   -1.2504019398    3.3135179215
29   

C        1.2179252123   -1.0000446019    0.1140105248
C        1.5973664436   -2.1452950749    0.8150386820
C        1.0797142126    0.2117296385    0.7926764311
C        1.8244997536   -2.0789124911    2.1941596074
C        1.3060420613    0.2756118700    2.1725314657
C        1.6996591640   -0.4497045665    6.4756567154
C        2.6601448216   -1.4898354171    6.2241527392
C        1.6628760641   -0.8749166766    2.9084033802
C        1.2135677790   -0.1039027503    5.2510641705
C        0.1515225683    0.9037023445    4.9194406818
C       -2.1467808596    1.4452109564    4.1333300107
C       -1.4532671002   -0.9387774593    4.4753916918
N        2.7216853603   -1.7293595087    4.9384820846
N        1.8712832429   -0.8589279695    4.3103314219
N       -1.1168863621    0.4813140724    4.5105342715
O        0.4045305853    2.1100874189    4.9669861610
H        1.0415615750   -1.0491976575   -0.9548001222
H        1.7169722066   -3.0878343454    0.2923327538
H        0.8051015663    1.1092447784    0.2494447081
H        2.1173400170   -2.9791647787    2.7233999612
H        1.2270793177    1.2436943059    2.6514553743
H        1.4167060662   -0.0401748218    7.4376519941
H        3.2345410328   -2.0090787807    6.9826300432
H       -2.2430409054    1.4803199468    3.0436608481
H       -1.9147618322    2.4522485534    4.4936440552
H       -3.1098780056    1.1610432550    4.5684944047
H       -2.5337051039   -1.0801950589    4.5775784157
H       -0.9792028422   -1.4790843164    5.3010601353
H       -1.1324720626   -1.3803635878    3.5263601682
29   

C        1.3474356798   -1.0826235867    0.0207329786
C        1.7223662295   -2.2033958711    0.7620234768
C        1.1817204908    0.1454586942    0.6623006947
C        1.9182604704   -2.0957313034    2.1433951815
C        1.3767293842    0.2501375169    2.0444890251
C        1.6081338092   -0.4676302705    6.3885530484
C        2.6119979351   -1.4726925975    6.1708260293
C        1.7300006127   -0.8738182311    2.8211791033
C        1.1899171973   -0.1014393362    5.1446022832
C        0.1405804474    0.9081074520    4.7721946150
C       -2.2075607661    1.4636640317    4.1836694188
C       -1.5484679085   -0.9058302112    4.6872851791
N        2.7573654184   -1.6754603676    4.8860268344
N        1.9169162870   -0.8176668693    4.2259872598
N       -1.1768932346    0.4993159375    4.5554014956
O        0.4462165882    2.0917545157    4.6070035900
H        1.1962900249   -1.1629110890   -1.0500178245
H        1.8634282613   -3.1587661732    0.2688997721
H        0.9114534023    1.0251767972    0.0886493174
H        2.2090928820   -2.9783719433    2.7023614619
H        1.2818764627    1.2316301502    2.4889928842
H        1.2618505099   -0.0869080514    7.3415123391
H        3.1573111674   -1.9935013118    6.9494243881
H       -2.3404558844    1.4697491255    3.0973662095
H       -1.9470718375    2.4749871791    4.5118630269
H       -3.1593710251    1.2065261700    4.6587237270
H       -2.6221333218   -1.0047897262    4.8746339719
H       -1.0307319488   -1.3760234271    5.5291335045
H       -1.3030895548   -1.4475144074    3.7679635063
29   

C        1.5942280184   -1.1330236130   -0.1229341325
C        1.8736988685   -2.2578827666    0.6532103378
C        1.4343270276    0.1079947386    0.4943009185
C        1.9797822498   -2.1401610673    2.0436848813
C        1.5408511075    0.2219750549    1.8854225002
C        1.4506223074   -0.5456718431    6.2535338036
C        2.4875822643   -1.5239202856    6.0813446842
C        1.7954054180   -0.9033046031    2.6958033006
C        1.1108955451   -0.1518180714    4.9932783361
C        0.0592284850    0.8472490384    4.6035484399
C       -2.3207218082    1.4832214085    4.3278680495
C       -1.7120583609   -0.8482918808    5.0181545793
N        2.7211045224   -1.6915525278    4.8053891479
N        1.9070760131   -0.8366558515    4.1082084460
N       -1.2933045311    0.5057184417    4.6700428820
O        0.3782588206    1.9764862922    4.2209970149
H        1.5137383263   -1.2199809441   -1.2007397363
H        2.0115341819   -3.2237376261    0.1801461009
H        1.2398086795    0.9912004791   -0.1041156750
H        2.1999815589   -3.0256669731    2.6295642263
H        1.4647378532    1.2122430434    2.3095665357
H        1.0326544942   -0.1982678471    7.1902697820
H        2.9919209172   -2.0520979767    6.8822721815
H       -2.5410113294    1.4403171767    3.2568054895
H       -2.0008200789    2.4981622062    4.5855664306
H       -3.2381476667    1.2808916409    4.8895671542
H       -1.8832698208   -0.9281120483    6.0960252801
H       -0.9654752022   -1.5904283552    4.7183025751
H       -2.6378207694   -1.1031075745    4.4926482395
29   

C        1.7702916727   -1.1454301021   -0.2345519108
C        1.9397684184   -2.2823585709    0.5560501770
C        1.6561515863    0.1060210731    0.3725283360
C        1.9794776476   -2.1652607904    1.9500095172
C        1.6996339434    0.2189478304    1.7673194242
C        1.3266219260   -0.6456135151    6.1312470251
C        2.4170657108   -1.5669384650    5.9828610457
C        1.8375483164   -0.9167219811    2.5892170827
C        1.0225179113   -0.2308855503    4.8669839108
C       -0.0455616581    0.7431753639    4.4728855156
C       -2.4155996886    1.4677561360    4.4673573089
C       -1.8016264226   -0.8138601810    5.3013132539
N        2.7176067710   -1.6843227250    4.7161823348
N        1.8956230142   -0.8500845275    4.0033158437
N       -1.3854161924    0.4801079593    4.7708075610
O        0.2399787320    1.8000665705    3.9018810902
H        1.7409019137   -1.2316478496   -1.3149762953
H        2.0447818279   -3.2565413841    0.0917897944
H        1.5477826123    0.9972637566   -0.2355548431
H        2.1176729745   -3.0578151388    2.5500319094
H        1.6713538115    1.2124446518    2.1910099221
H        0.8554128699   -0.3424961387    7.0579828497
H        2.9099821845   -2.0928786499    6.7923222260
H       -2.7682561298    1.3429749465    3.4389800852
H       -2.0321109252    2.4857820294    4.5921617646
H       -3.2623888897    1.3551669033    5.1517552861
H       -1.8024448228   -0.7950007368    6.3954446777
H       -1.1430531277   -1.6170392209    4.9553562115
H       -2.8094523542   -1.0588269408    4.9512173084
29   

C        1.8714864560   -1.2144610927   -0.2513273739
C        3.0012112809   -1.5398692531    0.5006319466
C        0.6745437610   -0.9063961069    0.3972878448
C        2.9321860877   -1.5531029500    1.8983819544
C        0.6098748220   -0.9143250797    1.7957634407
C        1.1186444973   -1.0102934942    6.1076405265
C        2.1215897326   -2.0319345825    5.9724647758
C        1.7424570495   -1.2262185323    2.5779021575
C        0.9058705891   -0.5408580848    4.8435311090
C        0.1120838850    0.6510356256    4.4087066115
C       -1.9459720023    2.0298575006    4.4654996735
C       -1.9307673239   -0.2452398225    5.5153989741
N        2.4678797741   -2.1431196119    4.7161143882
N        1.7121578722   -1.2573757605    3.9944477526
N       -1.2173506437    0.8130276451    4.8089271064
O        0.6328949512    1.5145926555    3.7006846186
H        1.9230088816   -1.2030199139   -1.3342277805
H        3.9342945696   -1.7803180341    0.0037205113
H       -0.2080028572   -0.6617336286   -0.1828385886
H        3.8182334904   -1.8059808727    2.4700351258
H       -0.3410281210   -0.6916962682    2.2609617143
H        0.6908570384   -0.6446563764    7.0326233304
H        2.5460571254   -2.6059969706    6.7879973473
H       -2.4275917459    1.9206525447    3.4890401774
H       -1.2749881764    2.8948104950    4.4371285282
H       -2.7106322115    2.2396629508    5.2201365691
H       -1.8033688360   -0.1349620667    6.5967333248
H       -1.5767979668   -1.2348356783    5.2087793291
H       -2.9992260306   -0.2030483086    5.2808409704
29   

C        1.9610184733   -1.2964025272   -0.2719109563
C        3.0925381534   -1.5131599498    0.5161228721
C        0.7237566328   -1.0814519726    0.3383465605
C        2.9845065092   -1.5117361958    1.9114181324
C        0.6204222281   -1.0733279876    1.7346436193
C        0.9888088722   -1.0947823307    6.0528113934
C        2.0344144779   -2.0758808470    5.9491947432
C        1.7524206630   -1.2758635799    2.5510432617
C        0.8075588372   -0.6158368565    4.7854583254
C        0.0318693726    0.5782836466    4.3326258500
C       -1.9067465562    2.1105551493    4.4923439061
C       -1.9513232553   -0.0817924356    5.6972694721
N        2.4419420176   -2.1523901521    4.7096616008
N        1.6818332730   -1.2894420980    3.9657088271
N       -1.2294597957    0.8717874301    4.8623861014
O        0.4936794417    1.3300982378    3.4714707121
H        2.0427630752   -1.2960855365   -1.3529648880
H        4.0566844975   -1.6800493168    0.0493408376
H       -0.1591413951   -0.9199010262   -0.2695019661
H        3.8705760657   -1.6800874445    2.5132790489
H       -0.3544702812   -0.9184472914    2.1783494160
H        0.5255660225   -0.7515668296    6.9688462085
H        2.4458607011   -2.6439259480    6.7755448131
H       -2.4658313699    1.9740810323    3.5616491602
H       -1.1865596815    2.9249094449    4.3601479080
H       -2.5983390701    2.4165951148    5.2837084280
H       -1.7259115793    0.0882637026    6.7545322475
H       -1.6963870334   -1.1127113225    5.4313918941
H       -3.0304016241    0.0260576332    5.5474928553
29   

C        2.1877145601   -1.5712248038   -0.1654852979
C        3.2976889587   -1.6421437794    0.6782084634
C        0.9081316327   -1.4560186887    0.3821096258
C        3.1255217352   -1.5947639906    2.0661847523
C        0.7405033739   -1.4013328264    1.7712476740
C        0.8935236299   -1.2497700032    6.0919074824
C        1.9829359719   -2.1857608872    6.0542357039
C        1.8481567443   -1.4554444743    2.6412147185
C        0.7604808170   -0.7808675991    4.8125864785
C        0.0067297344    0.4053014798    4.3073603893
C       -1.8009325432    2.0872377977    4.4661556654
C       -1.9130493118    0.0218686731    5.8660199296
N        2.4676166723   -2.2438958446    4.8430890625
N        1.7132889139   -1.4207112316    4.0503966737
N       -1.1787893183    0.8437829260    4.9112821005
O        0.3959766508    1.0184575997    3.3103786921
H        2.3190578109   -1.6060529839   -1.2410375495
H        4.2940880639   -1.7311157152    0.2604229801
H        0.0426577705   -1.4065815684   -0.2686018645
H        3.9936687564   -1.6505759907    2.7133314177
H       -0.2613802851   -1.3202547164    2.1734637040
H        0.3836284483   -0.9204318650    6.9871945914
H        2.3702661661   -2.7325147790    6.9062094299
H       -2.4020063765    1.9110901490    3.5688026118
H       -1.0402545336    2.8432976561    4.2443891082
H       -2.4436076159    2.4954287093    5.2526500416
H       -1.6027158445    0.2535291435    6.8894894638
H       -1.7621674132   -1.0439314646    5.6668753728
H       -2.9880446003    0.2092938391    5.7776971912
29   

C        2.7430202732   -0.9860579837   -0.0925069728
C        2.7260924697    0.0365026592    0.8590800719
C        2.2636986842   -2.2534286528    0.2444124230
C        2.2200619846   -0.2062157620    2.1421052356
C        1.7656919515   -2.4935411094    1.5299562197
C        0.5184584307   -1.5789298996    5.8742944834
C        1.2540093533   -2.7973163623    5.6841916057
C        1.7146973762   -1.4724083273    2.4969404605
C        0.5018802141   -0.9512793892    4.6548423656
C       -0.3477061885    0.1682939285    4.1472933270
C       -1.9712137811    2.0132060880    4.4258135474
C       -0.7285021437    1.1703825955    6.4149738240
N        1.6233179443   -2.8940083486    4.4370851229
N        1.2167671990   -1.7581934030    3.7907118083
N       -1.0391513283    1.0443922765    4.9969688549
O       -0.4298266536    0.3979882272    2.9376911475
H        3.1272280647   -0.7972340342   -1.0884677319
H        3.1018985660    1.0206945798    0.6042931833
H        2.2741875632   -3.0520667674   -0.4885973603
H        2.2176686071    0.5962884356    2.8693096736
H        1.3973010935   -3.4807390028    1.7852676860
H        0.0002690453   -1.3183996803    6.7859716722
H        1.4391590729   -3.5442933034    6.4474606870
H       -2.6816928714    2.3554026896    5.1849798671
H       -2.5540006710    1.5579279837    3.6180126869
H       -1.4267399397    2.8766406298    4.0311100138
H        0.3351016407    0.9889671797    6.5997350566
H       -1.3359244229    0.4765533522    7.0041628183
H       -0.9361132394    2.1885653957    6.7596506668
29   

C        2.7509206038   -0.9410217384   -0.0455335950
C        2.5600458431    0.0901337048    0.8767955409
C        2.4221333044   -2.2519263061    0.3041923673
C        2.0314047565   -0.1886023433    2.1431288327
C        1.9010023564   -2.5276164913    1.5733721317
C        0.3521327768   -1.6802392175    5.8388960095
C        1.1389232456   -2.8718159274    5.6793169499
C        1.6778994271   -1.5023090096    2.5118635806
C        0.3790611164   -1.0498206716    4.6238956977
C       -0.4803542886    0.0571704468    4.1083579227
C       -1.9412541925    2.0290114669    4.4215471258
C       -0.4992354329    1.2519701572    6.3071503534
N        1.5770230349   -2.9452333150    4.4514020083
N        1.1583423117   -1.8218538512    3.7898414179
N       -0.9949622022    1.0512776770    4.9505980964
O       -0.7360489795    0.1454218243    2.9048340872
H        3.1532310260   -0.7250805348   -1.0287910361
H        2.8193535101    1.1087898297    0.6121767779
H        2.5670935125   -3.0574977413   -0.4066608094
H        1.9002355149    0.6255234770    2.8446272636
H        1.6487946749   -3.5489560340    1.8357640221
H       -0.2248291422   -1.4259766325    6.7177880720
H        1.3123733915   -3.6167942511    6.4472667751
H       -2.5348904306    2.4634764118    5.2321411072
H       -2.6409952297    1.5532802565    3.7262094995
H       -1.4080848946    2.8298855507    3.9001001256
H        0.5502314706    0.9523198972    6.3919047046
H       -1.1033069215    0.6867775677    7.0234785195
H       -0.5459865548    2.3128269726    6.5734896764
29   

C        2.7504755678   -0.8167669922    0.0341551683
C        2.4338254478    0.2019674285    0.9348933886
C        2.5444684979   -2.1489469659    0.3963427447
C        1.9026115807   -0.1109902993    2.1919694513
C        2.0201960430   -2.4586877272    1.6563968852
C        0.2427738977   -1.7274348288    5.8537521788
C        1.0872037225   -2.8826201202    5.7155134289
C        1.6726546484   -1.4489100116    2.5741930269
C        0.3014002958   -1.0834634010    4.6494969952
C       -0.5526318550    0.0291167103    4.1342942633
C       -1.8421764787    2.1187112813    4.4546860304
C       -0.2797896535    1.3342118588    6.2445292878
N        1.5912729013   -2.9149703024    4.5099893606
N        1.1515583578   -1.8024286367    3.8430418466
N       -0.9066332787    1.1121355341    4.9463829705
O       -0.9594893640    0.0132212175    2.9705622574
H        3.1555698486   -0.5746550896   -0.9418778751
H        2.5988647962    1.2377326781    0.6609542880
H        2.7873436922   -2.9452495076   -0.2980842973
H        1.6807456064    0.6995742781    2.8739010933
H        1.8634660377   -3.4971087007    1.9262386887
H       -0.3784760932   -1.4907367821    6.7078817308
H        1.2568733951   -3.6309345084    6.4810559634
H       -2.3622059945    2.5952304548    5.2917744453
H       -2.6068841201    1.6628560897    3.8169328815
H       -1.3097752334    2.8840909105    3.8818571311
H        0.7459792092    0.9520341037    6.2591484197
H       -0.8598782924    0.8513930477    7.0369402460
H       -0.2210452939    2.4064969661    6.4571992485
29   

C        2.7677651311   -0.7640058100    0.1291395416
C        2.3348508483    0.2288109463    1.0095995911
C        2.6862829105   -2.1053181430    0.5058022437
C        1.8123463982   -0.1195396365    2.2608515001
C        2.1693911132   -2.4504559994    1.7597334312
C        0.2083572227   -1.8702050038    5.8970605819
C        1.1198370733   -2.9755664406    5.7733924651
C        1.7067245473   -1.4695269785    2.6584564338
C        0.2767980633   -1.2081992148    4.7051343263
C       -0.5889520402   -0.0975406828    4.1991355012
C       -1.7138166132    2.0909049623    4.5012313167
C       -0.0239732116    1.3074094053    6.1761165930
N        1.6746061351   -2.9561498212    4.5890913254
N        1.1959826240   -1.8599714072    3.9214251208
N       -0.7844972767    1.0615333281    4.9558037093
O       -1.1541739580   -0.2030682764    3.1093466093
H        3.1673324813   -0.4945431116   -0.8420418272
H        2.4045242089    1.2725562512    0.7249358022
H        3.0206550195   -2.8818652402   -0.1728370663
H        1.5078174720    0.6791244374    2.9238857530
H        2.1102467056   -3.4966648956    2.0385939795
H       -0.4473601379   -1.6652643622    6.7339104108
H        1.3024956037   -3.7260306984    6.5338237807
H       -2.1589470638    2.6042642938    5.3594309442
H       -2.5364050023    1.6538514846    3.9255568049
H       -1.1928013605    2.8230637278    3.8768954348
H        0.9747515613    0.8627992756    6.1173522386
H       -0.5513475131    0.8978699985    7.0431958691
H        0.1152116354    2.3830215500    6.3247176297
29   

C        2.6926963213   -0.6339486467    0.1109963790
C        1.3210633659   -0.4477543882    0.2889587578
C        3.4384145738   -1.2620206333    1.1089035769
C        0.6987536035   -0.8780117079    1.4669655410
C        2.8128781029   -1.6877077218    2.2861509167
C       -0.0750189251   -1.9997369895    5.7181149069
C        0.7353714402   -3.1637280597    5.4981237457
C        1.4345794603   -1.4856943041    2.5030837989
C        0.0332006179   -1.2568449377    4.5782598119
C       -0.6284140867    0.0574184245    4.2958157052
C       -1.0844261829    2.4200052184    4.8904397591
C        0.6661574938    1.1277623746    6.1324972654
N        1.2833677737   -3.0943545540    4.3134426917
N        0.8466647000   -1.9444739466    3.7077947572
N       -0.3742756769    1.1644999900    5.1101265499
O       -1.4220966647    0.1793742016    3.3577346148
H        3.1732195831   -0.3043374827   -0.8033726063
H        0.7300262964    0.0183338567   -0.4915920897
H        4.5016610230   -1.4244342488    0.9720549340
H       -0.3742037691   -0.7709130446    1.5352086906
H        3.4054790915   -2.1793849549    3.0496001252
H       -0.6545000095   -1.7711315689    6.6039476903
H        0.8805237674   -3.9713712444    6.2062554345
H       -1.1606859203    2.9813644279    5.8270231786
H       -2.1052806661    2.2374817739    4.5389616428
H       -0.5560994126    3.0291697047    4.1506563442
H        1.4767595668    0.4473738724    5.8523552457
H        0.2464698132    0.8118171311    7.0924491922
H        1.1134529908    2.1197532289    6.2515217020
29   

C        2.6629104688   -0.4985991202    0.2665873829
C        1.3015613529   -0.2744765318    0.4743150157
C        3.3937117641   -1.2229686869    1.2084088246
C        0.6750407678   -0.7623189804    1.6271501582
C        2.7640079882   -1.7094272095    2.3596583249
C       -0.2122669577   -2.1309395350    5.7522273617
C        0.6643272384   -3.2495839179    5.5469655257
C        1.3958716410   -1.4736605214    2.6080688281
C       -0.0835061521   -1.3596964462    4.6353602116
C       -0.7724555528   -0.0572251584    4.3434924891
C       -1.0483378239    2.3753815627    4.7318555115
C        0.8027650001    1.1207901232    5.8646943178
N        1.2676266853   -3.1245985547    4.3932356713
N        0.8049128516   -1.9821670550    3.7929969639
N       -0.3602979290    1.1137878308    4.9831764060
O       -1.7060948214   -0.0077137179    3.5378058060
H        3.1468987245   -0.1222219652   -0.6277288520
H        0.7214788866    0.2678011627   -0.2642210834
H        4.4493344535   -1.4120388795    1.0484846435
H       -0.3907028160   -0.6111316530    1.7145366752
H        3.3485742042   -2.2723443821    3.0788736325
H       -0.8411381752   -1.9465236476    6.6144175135
H        0.8139766654   -4.0662826907    6.2436877112
H       -0.9835962401    3.0239761977    5.6111977696
H       -2.1116096726    2.2108592888    4.5287710487
H       -0.5973429377    2.8875851342    3.8764032127
H        1.5362044118    0.3639122083    5.5692053128
H        0.4968533041    0.9382797607    6.8993981984
H        1.3104829983    2.0890217100    5.8110811735
29   

C        2.5647716437   -0.2871101521    0.4778773089
C        1.2078042926   -0.0652008112    0.7157897204
C        3.2969209884   -1.0886143830    1.3540861669
C        0.5869690298   -0.6318879314    1.8350910296
C        2.6735656852   -1.6551813608    2.4714957837
C       -0.3605787254   -2.2749777379    5.8152941070
C        0.5594684811   -3.3558263208    5.5904513999
C        1.3110927962   -1.4241691802    2.7512579264
C       -0.2064912526   -1.4432217280    4.7471847257
C       -0.9112521340   -0.1459593094    4.4653310482
C       -1.0012268846    2.3323453329    4.5866573018
C        0.9518079143    1.0815399854    5.5489228515
N        1.2046408872   -3.1558072488    4.4694302130
N        0.7277699842   -1.9998659459    3.9088703224
N       -0.3349968006    1.0629456040    4.8605549277
O       -1.9747776908   -0.1378004425    3.8403775780
H        3.0449689295    0.1521295362   -0.3894612861
H        0.6279019700    0.5390973905    0.0269034545
H        4.3492555380   -1.2743793852    1.1700068956
H       -0.4760009015   -0.4694708144    1.9516154581
H        3.2597441441   -2.2748847580    3.1411521430
H       -1.0310944206   -2.1532577973    6.6570706304
H        0.7074446674   -4.2014348257    6.2521703592
H       -0.8330097465    3.0367318678    5.4071897752
H       -2.0840029766    2.2026940527    4.4907514078
H       -0.6146744469    2.7657953174    3.6590512290
H        1.0358996827    0.2507057865    6.2563535009
H        1.0684570280    2.0055126806    6.1236343455
H        1.7679803274    1.0169642607    4.8219645227
29   

C        2.5186190413   -0.1957537771    0.6059927191
C        1.1564869158   -0.0137417236    0.8499606823
C        3.2738464228   -0.9945190729    1.4654166703
C        0.5532236289   -0.6172252996    1.9595419555
C        2.6685033589   -1.5979724062    2.5732934453
C       -0.4527625152   -2.4037122983    5.8313633180
C        0.5195747159   -3.4414146819    5.6183983471
C        1.3019779694   -1.4062597361    2.8592138298
C       -0.2625598471   -1.5171608891    4.8148237542
C       -0.9730050314   -0.2187900299    4.5643216072
C       -0.9766973246    2.2686466237    4.5049738903
C        1.0288274311    1.0238690018    5.3488061003
N        1.2256469268   -3.1691117633    4.5500353621
N        0.7359187914   -2.0097754997    4.0101018349
N       -0.3203065520    0.9963329455    4.7918779878
O       -2.1226996172   -0.2166835826    4.1173351724
H        2.9856608929    0.2727047707   -0.2532480962
H        0.5603097898    0.5891998329    0.1738811920
H        4.3303274056   -1.1489356414    1.2759239342
H       -0.5136371630   -0.4825871261    2.0877321612
H        3.2709575751   -2.2144220635    3.2315788539
H       -1.1728114389   -2.3384031772    6.6378843078
H        0.6595624584   -4.3088139085    6.2531069067
H       -0.7848921080    2.9848537531    5.3099161262
H       -2.0625372828    2.1576735699    4.4245322250
H       -0.5985065912    2.6791520440    3.5635265827
H        1.1694312752    0.2271976354    6.0863407425
H        1.2135283291    1.9727542829    5.8619099410
H        1.7699273921    0.9094495805    4.5511494633
29   

C        2.4906865034   -0.1850949862    0.6533396244
C        1.1279040807   -0.0169805968    0.9047848894
C        3.2600454637   -0.9733165369    1.5103547102
C        0.5380562140   -0.6240168638    2.0196204850
C        2.6679689935   -1.5810081279    2.6230678417
C       -0.5389278026   -2.4947335200    5.7968079281
C        0.4627185196   -3.5077877091    5.6001298862
C        1.3014995353   -1.4029728995    2.9153796073
C       -0.3044776188   -1.5586529115    4.8350289968
C       -1.0105165632   -0.2511427580    4.6457890308
C       -0.9978918226    2.2276051538    4.4804400593
C        1.0711113893    1.0106208627    5.1833085081
N        1.2274305463   -3.1791041501    4.5896043574
N        0.7459152466   -2.0083626394    4.0691247716
N       -0.3225629793    0.9626619617    4.7511327901
O       -2.2195759183   -0.2362045782    4.3993686219
H        2.9476787584    0.2862984729   -0.2097309934
H        0.5217938008    0.5784566790    0.2308710342
H        4.3171105841   -1.1162984554    1.3150530997
H       -0.5287847453   -0.4987875898    2.1600567684
H        3.2795614417   -2.1898301913    3.2801501521
H       -1.3008632492   -2.4694979229    6.5664754021
H        0.5811802734   -4.3977739712    6.2073634803
H       -1.3373631052    2.6828555659    5.4157502389
H       -1.8610110351    2.0888656730    3.8215346969
H       -0.3142761737    2.9161493741    3.9737203261
H        1.3111746894    0.1778122186    5.8519642683
H        1.2618256787    1.9325113172    5.7417291936
H        1.7407286457    0.9810586249    4.3179777488
29   

C        0.8277592802   -1.7970815069    0.3700356503
C        0.0689287011   -2.2707178890    1.4420621118
C        1.8922354748   -0.9259023652    0.6069537054
C        0.3651861511   -1.8626790026    2.7479373713
C        2.1888733874   -0.5222950630    1.9134437142
C        1.6501490952   -0.1003524425    6.4768390521
C        2.9980161426    0.0009417576    5.9864555618
C        1.4210270246   -0.9638969769    3.0082929977
C        0.8812775643   -0.3899416200    5.3891353612
C       -0.6118978269   -0.4657965447    5.3659277588
C       -2.8279461364    0.0841526075    4.4061203265
C       -0.7944781743    1.2920444518    3.5982121849
N        3.0126944811   -0.2166638774    4.6959410902
N        1.7330983056   -0.5135367663    4.3132439591
N       -1.3797509098    0.2556940681    4.4441041925
O       -1.1962928435   -1.1337085402    6.2242191178
H        0.5975162100   -2.1120388364   -0.6417872797
H       -0.7472426853   -2.9623209086    1.2642805130
H        2.4912675181   -0.5616365653   -0.2203985414
H       -0.2247780655   -2.2737733173    3.5582361996
H        3.0192279969    0.1547568106    2.0828866077
H        1.3104840657    0.0630820944    7.4927013835
H        3.8665756144    0.2444878626    6.5874007971
H       -3.3092567881    0.7663543948    5.1135221046
H       -3.1073801021   -0.9446060880    4.6562641981
H       -3.2063125143    0.2865437881    3.3990836336
H       -0.5713225301    0.8952452315    2.6029837890
H        0.1215586412    1.6987366576    4.0380378842
H       -1.4923981213    2.1284984147    3.4914233883
29   

C        0.8395619312   -1.7956273611    0.3557194848
C        0.0532408150   -2.2387326851    1.4213942494
C        1.9128557073   -0.9363767650    0.5972467109
C        0.3315413484   -1.8120842907    2.7254906471
C        2.1920380239   -0.5153706866    1.9019612423
C        1.6004503976   -0.1370177271    6.4670869586
C        2.9568619619   -0.0686855028    5.9965966394
C        1.3973663403   -0.9270636511    2.9888938967
C        0.8285750224   -0.3507885334    5.3626327906
C       -0.6643652449   -0.3104450103    5.3607007548
C       -2.8698822680    0.2294354998    4.3870634549
C       -0.8150657864    1.2661737277    3.4220485427
N        2.9785424417   -0.2318805604    4.6988087462
N        1.6935603540   -0.4650112989    4.2922380453
N       -1.4141451679    0.3208432188    4.3600138438
O       -1.2704062996   -0.7547579636    6.3405667141
H        0.6235231364   -2.1245143581   -0.6548236690
H       -0.7705612970   -2.9201276279    1.2395926843
H        2.5325150219   -0.5953201653   -0.2248371237
H       -0.2804712217   -2.1927222487    3.5343953334
H        3.0299209032    0.1510392798    2.0768262272
H        1.2548671977    0.0114732087    7.4835374716
H        3.8262918553    0.1181113655    6.6163098969
H       -3.2828178997    0.9572194971    5.0924754513
H       -3.1877359308   -0.7756860844    4.6836933202
H       -3.2821710684    0.4220565438    3.3914943499
H       -0.6550953587    0.7952023122    2.4473852795
H        0.1360371171    1.6560629499    3.7974203365
H       -1.4758877267    2.1281062595    3.2856644272
29   

C        0.8720306655   -1.7713200289    0.3559057784
C        0.0914601799   -2.2263155011    1.4211478719
C        1.9335983849   -0.8975754536    0.5981745300
C        0.3641662560   -1.7973744721    2.7258414247
C        2.2074635440   -0.4748444804    1.9033896196
C        1.6355192461   -0.2507485086    6.4836598044
C        2.9902541595   -0.1780855958    6.0106940723
C        1.4185888116   -0.8994139883    2.9891828518
C        0.8486586548   -0.3790486702    5.3747629033
C       -0.6385502552   -0.2458099821    5.4150934510
C       -2.8657948488    0.2471867531    4.4779965247
C       -0.8421436870    1.1862398768    3.3718488904
N        3.0019554398   -0.2562293614    4.7055578015
N        1.7112774910   -0.4421551600    4.2940416128
N       -1.4108474999    0.2931626963    4.3774019617
O       -1.2151247553   -0.4913273187    6.4788148774
H        0.6607185440   -2.1018872336   -0.6551017447
H       -0.7234053060   -2.9180214377    1.2381340110
H        2.5486728748   -0.5472158631   -0.2234720777
H       -0.2430410836   -2.1817588310    3.5367514075
H        3.0369578518    0.2014113895    2.0806932304
H        1.2996850947   -0.1429240036    7.5087293405
H        3.8657607627   -0.0445964590    6.6356030708
H       -3.2253393369    1.0347680923    5.1476966425
H       -3.1929839125   -0.7246817352    4.8624439601
H       -3.3210370766    0.3803348336    3.4914634701
H       -0.7350323793    0.6729348318    2.4116323566
H        0.1291537627    1.5791386951    3.6869707214
H       -1.4968688401    2.0515642031    3.2275366813
29   

C        0.9085759988   -1.7446421778    0.3593617657
C        0.1293407473   -2.2118583378    1.4205825360
C        1.9547348460   -0.8536688075    0.6068549975
C        0.3882637220   -1.7781736951    2.7266485526
C        2.2149126575   -0.4264471050    1.9133880833
C        1.6307162227   -0.3486132590    6.4974549526
C        2.9882044132   -0.2847643686    6.0325855787
C        1.4269902028   -0.8638115812    2.9943260990
C        0.8396798440   -0.3864030081    5.3829921666
C       -0.6360253400   -0.1487654662    5.4518281987
C       -2.8828278168    0.2792245771    4.5420196565
C       -0.8945785844    1.1221359867    3.3148546552
N        3.0021464524   -0.2808479241    4.7257660029
N        1.7089684218   -0.4093213094    4.3016038114
N       -1.4321002960    0.2839307700    4.3826404019
O       -1.1724074236   -0.1844767379    6.5623258979
H        0.7083920570   -2.0789825560   -0.6526775080
H       -0.6735801881   -2.9162152349    1.2331702538
H        2.5689538219   -0.4941750646   -0.2115005720
H       -0.2171924841   -2.1678343043    3.5365465047
H        3.0335014901    0.2614057124    2.0968377546
H        1.2981946144   -0.2753719233    7.5268157820
H        3.8645632253   -0.2107934346    6.6661172509
H       -3.2016313623    1.1339246646    5.1471505661
H       -3.2105273602   -0.6444580766    5.0307426723
H       -3.3745949426    0.3280363251    3.5653117481
H       -0.8281578809    0.5643708991    2.3762236925
H        0.0895940937    1.5224241341    3.5754865449
H       -1.5481597256    1.9852520155    3.1529835501
