28   

C       -3.3211854884    4.3777194783    2.2439706771
C       -3.7906011064    3.1658858183    2.7566113301
C       -2.3299218854    4.3765787353    1.2591950204
C       -3.2714859364    1.9557403946    2.2824723606
C       -1.8016980018    3.1653839370    0.7967993537
C       -2.2641114281    1.9396938590    1.3025335613
C       -0.5315446173    0.3972595081    0.1308222595
C        0.5558827378   -0.2190442274    0.8480134448
C       -0.5199770938    0.0341626088   -1.3278069225
C       -1.7052720252    0.6891145939    0.8350892389
C        1.9102593572   -0.2973243368   -1.1909098036
C        0.6748056999   -0.9308610093   -3.2782959135
N        1.6958286761   -0.6075728592    0.2009738991
N        0.6615795535   -0.3975018579   -1.9208640184
O        0.4856412837   -0.4647874136    2.0394539549
O       -1.5566020386    0.0846069606   -1.9732810016
H       -3.7248185304    5.3154100517    2.6091619428
H       -4.5550697842    3.1624184629    3.5253006084
H       -1.9692409088    5.3146120083    0.8528958726
H       -3.6445128804    1.0259136811    2.6967502168
H       -1.0346478106    3.1791315131    0.0310535818
H       -2.0801356565   -0.1569067214    1.4017103790
H        2.3197927311    0.7141160063   -1.2868509003
H        2.6367181093   -1.0040831324   -1.6058342588
H        1.5987672839   -0.6445965318   -3.7905592279
H       -0.1600561165   -0.5408441520   -3.8693806947
H        0.6062568478   -2.0229881842   -3.2513739632
H        2.3597242274   -1.1303419786    0.7591613584
28   

C       -3.4678277927    4.3769004202    2.0371907602
C       -3.8197372299    3.2242104305    2.7435857563
C       -2.5587306595    4.2914870947    0.9795861561
C       -3.2644705572    1.9888050614    2.3912591490
C       -1.9926524706    3.0573925830    0.6387432369
C       -2.3346324603    1.8905729616    1.3412385514
C       -0.5676688164    0.3065544586    0.3024639628
C        0.4434074436   -0.4957486213    0.9445889721
C       -0.5892822519    0.1153714712   -1.1833444538
C       -1.7301788891    0.6159589429    0.9992064579
C        1.7746249393   -0.5727283814   -1.1152077172
C        0.4923053856   -0.6966618706   -3.2627536038
N        1.5223876899   -0.9651657008    0.2493258736
N        0.5313248611   -0.3852622510   -1.8378008291
O        0.3633196666   -0.8187244693    2.1170682869
O       -1.5895604753    0.4141362086   -1.8197874112
H       -3.8999711515    5.3337816650    2.3076209591
H       -4.5210219208    3.2867954723    3.5679415707
H       -2.2921320120    5.1812406074    0.4207461417
H       -3.5467262860    1.1071648323    2.9555658379
H       -1.2945074200    3.0041548754   -0.1890678389
H       -2.0055860242   -0.1319232886    1.7361662139
H        2.3551733179    0.3560505807   -1.1310061473
H        2.3659377094   -1.3550691101   -1.6028264533
H        0.9288974063    0.1245806441   -3.8396342437
H       -0.5340305052   -0.8591505062   -3.6078459264
H        1.0511394833   -1.6155232524   -3.4665215875
H        2.1326119075   -1.5892600125    0.7629547336
28   

C       -3.5031429700    4.3690534692    1.9197712022
C       -3.7842325578    3.2804559385    2.7481724748
C       -2.6367798775    4.2088539258    0.8357230823
C       -3.2015965671    2.0344817038    2.4905819113
C       -2.0417068834    2.9659044796    0.5894910221
C       -2.3132450257    1.8608503860    1.4140811042
C       -0.5585533986    0.2239358846    0.4581799466
C        0.4083666578   -0.6804761708    1.0305598807
C       -0.5737900502    0.1834651367   -1.0381814923
C       -1.6809349210    0.5709532910    1.1814983987
C        1.7470783795   -0.6448852267   -1.0253817671
C        0.4880602551   -0.4717925069   -3.1821670952
N        1.4596552489   -1.1499390292    0.2943772906
N        0.5252521543   -0.3122788883   -1.7321277553
O        0.3227980457   -1.0798657141    2.1790003186
O       -1.5480105057    0.5951848138   -1.6519022054
H       -3.9569656185    5.3339093703    2.1161459111
H       -4.4518509043    3.4011803830    3.5937319045
H       -2.4254191171    5.0472917999    0.1820149537
H       -3.4298183099    1.2045069864    3.1497234168
H       -1.3773539018    2.8611211759   -0.2603749730
H       -1.9103709836   -0.1073616231    1.9973318121
H        2.3835537604    0.2434821511   -0.9501942552
H        2.2938769236   -1.4121543547   -1.5837837416
H        0.9725138239    0.3814699732   -3.6670510817
H       -0.5407024325   -0.5449800798   -3.5497583151
H        1.0025726281   -1.3918175235   -3.4769807978
H        2.0452116180   -1.8329091105    0.7594975416
28   

C       -3.5261813293    4.3227292963    1.7806487959
C       -3.7446642467    3.2834097193    2.6863050162
C       -2.6840496996    4.1195924699    0.6854440573
C       -3.1255564837    2.0436988300    2.4930562117
C       -2.0527123189    2.8834891443    0.5021438623
C       -2.2646423990    1.8228452537    1.4018539458
C       -0.5523735902    0.1162681034    0.4755546056
C        0.3808458516   -0.8585919298    0.9869807489
C       -0.5681414297    0.1771205109   -1.0189372246
C       -1.6017219237    0.5333862538    1.2552839502
C        1.7289349592   -0.7157793927   -1.0552322094
C        0.4864600735   -0.3598153798   -3.1996581855
N        1.4112902223   -1.3180634483    0.2159671663
N        0.5236689389   -0.2930872122   -1.7421995248
O        0.2969628183   -1.3127694050    2.1150915399
O       -1.5428295403    0.6180414935   -1.6109320192
H       -4.0081249325    5.2828486611    1.9268136163
H       -4.3923489777    3.4373303039    3.5419431312
H       -2.5173916821    4.9204407125   -0.0257862609
H       -3.3076968263    1.2538291076    3.2130578426
H       -1.4013930921    2.7612030727   -0.3539014467
H       -1.7824724128   -0.0862979203    2.1279793015
H        2.3882411235    0.1455646478   -0.9022166264
H        2.2611807391   -1.4502181349   -1.6690559397
H        0.9657774700    0.5254951501   -3.6289813420
H       -0.5421373976   -0.4161257512   -3.5706509242
H        1.0061791494   -1.2557167317   -3.5536619173
H        1.9844886097   -2.0373343737    0.6399098836
28   

C       -3.6687880146    4.4606028411    1.7853438831
C       -3.7722703911    3.4535580660    2.7450524222
C       -2.8791603669    4.2555562426    0.6527453973
C       -3.0937576497    2.2433759645    2.5665192824
C       -2.1882923822    3.0495568810    0.4827262859
C       -2.2890529636    2.0153855379    1.4334058598
C       -0.6164262485    0.2767703450    0.4624806051
C        0.3045425280   -0.7450164765    0.9010068462
C       -0.6535541906    0.4281227142   -1.0242559032
C       -1.5706485656    0.7515161512    1.3198164504
C        1.6361615685   -0.4770463235   -1.1349128544
C        0.3829751308    0.0161109358   -3.2443232581
N        1.3115487323   -1.1759358970    0.0840937164
N        0.4325119316    0.0044666129   -1.7853122654
O        0.2437365641   -1.2508386481    2.0084874283
O       -1.6496806499    0.8627530760   -1.5835777285
H       -4.1970045993    5.3978451759    1.9196286474
H       -4.3771589441    3.6093106402    3.6311700639
H       -2.7970210686    5.0332149376   -0.0979222167
H       -3.1895561789    1.4797175433    3.3301950251
H       -1.5720548869    2.9439819467   -0.3994357306
H       -1.6699246089    0.1723173782    2.2324136562
H        2.2999058092    0.3659432027   -0.9138209329
H        2.1651318242   -1.1635668247   -1.8045051434
H        0.9072526445    0.8955418251   -3.6310262443
H       -0.6478125389    0.0347482086   -3.6126587844
H        0.8521644522   -0.8868198537   -3.6476168067
H        1.8893968333   -1.9176539931    0.4603324324
28   

C       -3.7082623683    4.4359569622    1.7477755235
C       -3.7113284192    3.4775867562    2.7603836675
C       -2.9764323008    4.2040277358    0.5826642491
C       -2.9933316435    2.2879677241    2.6007651270
C       -2.2458215590    3.0190881106    0.4303210024
C       -2.2496747969    2.0277833295    1.4321895253
C       -0.6369354768    0.2197057124    0.4523287466
C        0.2403385985   -0.8514368424    0.8648978518
C       -0.6443921047    0.4254178471   -1.0275293286
C       -1.4954000090    0.7808751293    1.3524531878
C        1.6223604652   -0.5368360948   -1.1272965710
C        0.4353784321    0.0846915469   -3.2405675419
N        1.2416853500   -1.2875949878    0.0438140652
N        0.4510265356    0.0132597107   -1.7821916469
O        0.1586824475   -1.3847438241    1.9581128688
O       -1.6349987373    0.8604028713   -1.5953221070
H       -4.2675656433    5.3570867544    1.8668742355
H       -4.2693718167    3.6547906553    3.6728470131
H       -2.9680600927    4.9460216937   -0.2075410729
H       -3.0139996962    1.5634131015    3.4071327747
H       -1.6707185288    2.9098173727   -0.4771083435
H       -1.5368013437    0.2498315189    2.2981126890
H        2.3036228286    0.2731816210   -0.8447281922
H        2.1498766954   -1.2037355714   -1.8175591153
H        0.9890528734    0.9660022464   -3.5790152837
H       -0.5852818613    0.1431194651   -3.6320477516
H        0.8929527004   -0.8120962391   -3.6700228875
H        1.7954247337   -2.0548877737    0.4047028435
28   

C       -3.7690027547    4.4409506311    1.7724574892
C       -3.6500837580    3.5345547949    2.8241487874
C       -3.1179589318    4.1828816064    0.5663597230
C       -2.8941443049    2.3692406294    2.6619122033
C       -2.3482847941    3.0232755150    0.4103086048
C       -2.2323895424    2.0782602958    1.4507653261
C       -0.6758792316    0.2143017146    0.4516183265
C        0.1515019685   -0.9022353137    0.8481370339
C       -0.6348871279    0.4707834717   -1.0192342357
C       -1.4418727712    0.8525603615    1.3820495918
C        1.6039381792   -0.5585277830   -1.0856253352
C        0.5112195649    0.1856396851   -3.2086797680
N        1.1547864738   -1.3479638895    0.0347717132
N        0.4764208390    0.0628434492   -1.7536365640
O        0.0341451534   -1.4594749592    1.9260914294
O       -1.6122040216    0.9053568202   -1.6085397189
H       -4.3587285160    5.3427362836    1.8929362503
H       -4.1433191929    3.7328654878    3.7690408262
H       -3.2015881955    4.8862318440   -0.2542642370
H       -2.8228692547    1.6864151265    3.5011754993
H       -1.8375562346    2.9102003617   -0.5323949626
H       -1.4249093763    0.3606608029    2.3493023129
H        2.3025529195    0.2122476456   -0.7423168877
H        2.1321885113   -1.2122882021   -1.7878429458
H        1.1182966440    1.0493061808   -3.4973338174
H       -0.4909769697    0.3093252877   -3.6312270690
H        0.9383828865   -0.7173831738   -3.6560277226
H        1.6758925069   -2.1421429804    0.3859843174
28   

C       -3.8328660540    4.4480129243    1.8169836769
C       -3.5645741227    3.6199076980    2.9041888603
C       -3.2885008575    4.1410393662    0.5708573552
C       -2.7673631551    2.4831163523    2.7382478835
C       -2.4776037783    3.0105696928    0.4090785974
C       -2.2101927369    2.1404493356    1.4873272445
C       -0.6975305456    0.2311095879    0.4826879803
C        0.0856993005   -0.9161301447    0.8798100038
C       -0.5959032775    0.5240289068   -0.9781492033
C       -1.3785390157    0.9417304749    1.4277949484
C        1.6183607167   -0.5623661546   -0.9884818666
C        0.6449523880    0.2954360400   -3.1226004986
N        1.1016022156   -1.3720070991    0.0880215971
N        0.5380778702    0.1165363705   -1.6773365509
O       -0.0737559052   -1.4846374348    1.9464007694
O       -1.5594496408    0.9326521815   -1.6058490122
H       -4.4557471804    5.3268923456    1.9399731967
H       -3.9744885761    3.8563669180    3.8796505066
H       -3.4883399364    4.7837106804   -0.2790061839
H       -2.5825117376    1.8626072048    3.6080380271
H       -2.0636018782    2.8692996069   -0.5740328131
H       -1.2966272302    0.4950517894    2.4135009123
H        2.3298757342    0.1720131950   -0.5958886871
H        2.1474390392   -1.2122677952   -1.6939277352
H        1.6270132680    0.7058853330   -3.3775206458
H       -0.1068551332    0.9938991148   -3.5037897817
H        0.5131368525   -0.6643129289   -3.6319507696
H        1.5876711622   -2.1891679737    0.4367715864
28   

C       -3.8681574250    4.3964001063    1.8340028460
C       -3.2062044077    3.8313403782    2.9209109007
C       -3.7169271201    3.8285605074    0.5704531514
C       -2.3815024117    2.7170086735    2.7364638863
C       -2.8980235525    2.7071101224    0.3891445255
C       -2.1802111503    2.1379666805    1.4640320951
C       -0.7076732070    0.2076594637    0.4350667388
C       -0.0579884202   -1.0254423101    0.8293882189
C       -0.5410974475    0.5520283975   -1.0081595666
C       -1.3050384471    0.9713541738    1.3974625175
C        1.3116217377   -1.0672822110   -1.1913274685
C        0.5007554221    0.1331778620   -3.2136477993
N        0.7779975158   -1.6963722343   -0.0143296062
N        0.3339429704   -0.1898859953   -1.7997470614
O       -0.2141127978   -1.5234074593    1.9313459046
O       -1.0170863973    1.5553002021   -1.5075999443
H       -4.5064607125    5.2619161707    1.9714030809
H       -3.3305760269    4.2554580699    3.9108882177
H       -4.2481295897    4.2460620608   -0.2773303721
H       -1.8835410755    2.3077512521    3.6083195794
H       -2.9079064987    2.2840750109   -0.6006885806
H       -1.0803378315    0.6223938964    2.4001691142
H        2.2058613783   -0.4915936843   -0.9268161782
H        1.6014538749   -1.8435429948   -1.9071597066
H        1.2146105774    0.9555076023   -3.3290051433
H       -0.4536450557    0.4291892964   -3.6611459250
H        0.8678627868   -0.7370916044   -3.7663987061
H        1.1724025696   -2.5474536371    0.3673397869
28   

C       -3.9608238398    4.2913514132    1.7285322097
C       -3.2514944332    3.8336418042    2.8374772478
C       -3.7575107974    3.6896979687    0.4866715156
C       -2.3328247457    2.7882922904    2.6983068493
C       -2.8440660694    2.6369446310    0.3508701340
C       -2.0922747126    2.1753871305    1.4509623492
C       -0.5941193530    0.2612937064    0.4442298619
C        0.0036054213   -0.9914894127    0.8486608702
C       -0.3536808879    0.6293516613   -0.9810754992
C       -1.1377057581    1.0732784636    1.4022842037
C        1.2804814186   -1.2110088311   -1.2354813784
C        0.6421903621    0.1810640067   -3.1946630647
N        0.7604823671   -1.7410985529   -0.0034626725
N        0.4286635061   -0.1832492410   -1.7976160435
O       -0.1411081954   -1.4483419241    1.9697626911
O       -0.6989860964    1.7102061926   -1.4302260356
H       -4.6723976077    5.1027114100    1.8322945339
H       -3.4129012462    4.2868956191    3.8090248478
H       -4.3166328317    4.0295889663   -0.3775691469
H       -1.7998842229    2.4556919433    3.5819775499
H       -2.7786613273    2.1754760146   -0.6225461009
H       -0.8761211741    0.7685974049    2.4105969499
H        2.2782876479   -0.7947232865   -1.0569531712
H        1.3747960062   -2.0310543324   -1.9549832493
H        1.4049906494    0.9634438729   -3.2663373566
H       -0.2857902653    0.5490176533   -3.6444186580
H        0.9696774987   -0.6874885613   -3.7745509729
H        1.1145243957   -2.6000139231    0.3998930270
28   

C       -4.0349335652    4.2365448605    1.7341607741
C       -3.2648587605    3.8665202184    2.8364457843
C       -3.8232864043    3.6111197233    0.5046724699
C       -2.2806607870    2.8813529148    2.7042561567
C       -2.8448929988    2.6176369518    0.3765408119
C       -2.0423574250    2.2416202414    1.4715588177
C       -0.5770280419    0.3297687022    0.4469267067
C       -0.0268506862   -0.9412378893    0.8495887292
C       -0.2813660145    0.7185872075   -0.9620420450
C       -1.0286584283    1.1963826025    1.4095529631
C        1.1727235340   -1.2685608805   -1.2761563880
C        0.7238557734    0.2781530512   -3.1711341946
N        0.6694792526   -1.7380028767   -0.0113574864
N        0.4544554052   -0.1209510060   -1.7934530641
O       -0.1579994042   -1.3714585050    1.9826624161
O       -0.5708997064    1.8290406839   -1.3812237209
H       -4.7973233296    5.0009613497    1.8332805129
H       -3.4306416966    4.3406381681    3.7972128717
H       -4.4227496059    3.8887208426   -0.3547332249
H       -1.7008827394    2.6121494006    3.5799296782
H       -2.7473133864    2.1362146542   -0.5862703001
H       -0.7058795111    0.9318963216    2.4115995982
H        2.2299202517   -1.0042688435   -1.1617211604
H        1.1010785499   -2.0862031665   -2.0009808340
H        1.5519611730    0.9939247404   -3.1997460687
H       -0.1607903137    0.7410690637   -3.6205933729
H        0.9867945216   -0.5921010501   -3.7806706164
H        1.0014750298   -2.5998005268    0.4045929607
28   

C       -4.0936078842    4.1696303503    1.7688999299
C       -3.2627457218    3.8817338789    2.8524440798
C       -3.8763611430    3.5350540274    0.5444303713
C       -2.2144978088    2.9664826252    2.7078939303
C       -2.8353708608    2.6092589733    0.4051976101
C       -1.9805131175    2.3127023388    1.4830551351
C       -0.5511876252    0.4046177143    0.4365775974
C       -0.0475277221   -0.8760666915    0.8602349780
C       -0.1977732626    0.7804821995   -0.9624482624
C       -0.9062021502    1.3337567770    1.3879375061
C        1.0986004708   -1.3186053928   -1.2817209701
C        0.8524480347    0.3136608765   -3.1436037955
N        0.6070510927   -1.7206188847    0.0118866993
N        0.5172770966   -0.0879150385   -1.7812370721
O       -0.1726343874   -1.2670844464    2.0079402385
O       -0.4591776781    1.8974293995   -1.3854661765
H       -4.9052435985    4.8800675342    1.8780766875
H       -3.4316601960    4.3647663993    3.8081720155
H       -4.5169616132    3.7554793121   -0.3017455024
H       -1.5875669230    2.7567765646    3.5671306050
H       -2.7105324971    2.1231594084   -0.5535512094
H       -0.5105874100    1.1196722559    2.3758558046
H        2.1853542542   -1.1936701971   -1.2196612051
H        0.8870995701   -2.1215625651   -1.9955340648
H        1.7160338010    0.9866163173   -3.1352645624
H        0.0075555264    0.8253110398   -3.6162223721
H        1.0923042659   -0.5612581234   -3.7560671721
H        0.9234903951   -2.5750687857    0.4544078969
28   

C       -4.1589038879    4.1029704792    1.8554505137
C       -3.2549500496    3.8858580732    2.8972803915
C       -3.9648802264    3.4670511097    0.6271412891
C       -2.1581748846    3.0374815361    2.7085842622
C       -2.8760706274    2.6062714030    0.4452561080
C       -1.9552712106    2.3779487411    1.4824790095
C       -0.5755508761    0.4715813806    0.3902398747
C       -0.1326153250   -0.8172903579    0.8493194265
C       -0.1540982633    0.8131910850   -0.9990714067
C       -0.8344180784    1.4648461545    1.3182076623
C        1.0422784888   -1.3535204749   -1.2577058234
C        0.9812460439    0.2936870599   -3.1244138280
N        0.5035836544   -1.7063396235    0.0324808268
N        0.5696009511   -0.0845760738   -1.7765143599
O       -0.2781593419   -1.1669305368    2.0076761778
O       -0.4031922586    1.9219896320   -1.4514666053
H       -5.0077014970    4.7619648775    1.9992079156
H       -3.4051336902    4.3715579240    3.8547416078
H       -4.6581080962    3.6385452187   -0.1883315102
H       -1.4735366610    2.8791550242    3.5340539455
H       -2.7481546897    2.1228974505   -0.5160128628
H       -0.3519292071    1.3018161440    2.2767777911
H        2.1344693841   -1.3144030757   -1.1800007625
H        0.7784810270   -2.1429279404   -1.9692308611
H        1.8706154669    0.9306455297   -3.0807343231
H        0.1802538873    0.8358003891   -3.6378133771
H        1.2123000377   -0.5944195282   -3.7210964537
H        0.7908155808   -2.5536153831    0.5076136059
28   

C       -4.1906765013    4.0048595844    1.9648606842
C       -3.1976453209    3.8696622394    2.9381086225
C       -4.0407669764    3.3709145364    0.7288420097
C       -2.0563938471    3.1036269216    2.6741627269
C       -2.9066215691    2.5914664310    0.4730510402
C       -1.9011346043    2.4442260330    1.4419606516
C       -0.5181760663    0.5828847507    0.2702367871
C       -0.1425382353   -0.7106670838    0.7727401484
C        0.0133261744    0.8878462331   -1.0885083576
C       -0.7377236501    1.6154604011    1.1802476729
C        0.9667290523   -1.3989452398   -1.3327975655
C        1.2613553448    0.3000634573   -3.1308337420
N        0.4653129175   -1.6538427407   -0.0045442020
N        0.7136410913   -0.0593676135   -1.8268979527
O       -0.3053934987   -1.0102437691    1.9426693478
O       -0.1435168271    2.0101869130   -1.5491498898
H       -5.0737762612    4.6003100551    2.1673458008
H       -3.3130793260    4.3548255456    3.9006330366
H       -4.8023242075    3.4826554571   -0.0344001522
H       -1.3011481647    3.0060466684    3.4456764112
H       -2.7990104271    2.1107680944   -0.4930848475
H       -0.1583289468    1.5112865591    2.0920475820
H        2.0497612321   -1.5645836480   -1.3260157253
H        0.5151566756   -2.1201061888   -2.0218541580
H        2.2002159319    0.8490651578   -3.0059787110
H        0.5561976910    0.9228579925   -3.6912427631
H        1.4543397771   -0.5963971175   -3.7286318285
H        0.7372623498   -2.4827350049    0.5103735619
28   

C       -4.2207852184    3.2361073385    2.4828105472
C       -3.0657671183    3.3584894214    3.2591214182
C       -4.1702685363    2.5468933305    1.2683915545
C       -1.8623479732    2.7952061117    2.8195239870
C       -2.9689040230    1.9715792395    0.8376353118
C       -1.8000304753    2.0868046469    1.6072385305
C       -0.2945359970    0.4932011980    0.2095163405
C        0.0624841072   -0.8256410587    0.6672029825
C        0.3055234472    0.8056354534   -1.1339461989
C       -0.5629857322    1.4765270594    1.1682981049
C        0.3281594608   -1.5973335295   -1.6414710854
C        1.4604742033    0.0191879311   -3.1869831144
N        0.4215881206   -1.8042489077   -0.2173594949
N        0.6964500400   -0.2342089287   -1.9706840024
O        0.1088497810   -1.1067599045    1.8519567028
O        0.4828105723    1.9691316574   -1.4634735228
H       -5.1527429382    3.6744184379    2.8217584864
H       -3.1020496271    3.8868586172    4.2050665513
H       -5.0623938374    2.4572206570    0.6591734644
H       -0.9781783795    2.8957970778    3.4387767244
H       -2.9434437835    1.4414041212   -0.1074525551
H        0.2130544104    1.5532158378    1.9227538365
H        1.0041801633   -2.2941057001   -2.1483046609
H       -0.6935954041   -1.8009643343   -1.9798402137
H        2.5284466934   -0.1227207276   -2.9933045154
H        1.3033723541    1.0384111416   -3.5542601988
H        1.1483572213   -0.6658296630   -3.9815658119
H        0.7609004708   -2.6647590241    0.1949552707
