24   

C       -1.2781327908   -1.2659342729    2.3558989092
C       -3.7704653415    0.3022873339    3.2429989781
C       -4.9904586694    0.8868078555    1.2460867111
C       -4.9035447178    0.6000853595    4.0100537669
C       -6.1162767842    1.1835531786    2.0224739000
C       -3.7937011450    0.4228059300    1.8364152359
C       -6.0854770387    1.0382902214    3.4100905951
C       -2.6854717471    0.1432730852    0.9320187222
C       -0.4559274449   -0.7175780097    0.1276011342
C       -1.5263417131   -0.5549163862    1.1402471041
C       -1.0324564055    0.8666827495   -3.0389173318
N       -1.0334147849   -1.8567805882    3.3295636053
N       -0.3204901546   -0.2232673750   -1.0864965296
O       -1.2756947306    0.6523594110   -1.6485698414
Cl      -7.4929705008    1.4058283659    4.3761371888
H       -2.8886310406    0.0053571402    3.7917383659
H       -5.0602633622    1.0115531452    0.1713311487
H       -4.8640937478    0.4952634650    5.0881816785
H       -7.0266494864    1.5292510470    1.5467674013
H       -2.8809220005    0.4903962516   -0.0686529275
H        0.3705344242   -1.3538497666    0.4251932081
H       -1.8512178853    1.4481160614   -3.4719859290
H       -0.9637279955   -0.0906584477   -3.5652387275
H       -0.0962265353    1.4162946880   -3.1748881784
24   

C       -1.4370496471   -1.3674276529    2.3135916131
C       -3.6799365516    0.5025457505    3.2273299114
C       -5.0665872739    0.7147059799    1.2621347233
C       -4.7930804726    0.7732112012    4.0322174924
C       -6.1729450603    0.9859041481    2.0754934163
C       -3.7981109251    0.4577746500    1.8240668906
C       -6.0477931251    1.0141375471    3.4665687076
C       -2.7027396075    0.1672812213    0.9032968785
C       -0.5344301928   -0.8381988844    0.1035016697
C       -1.6012822411   -0.6175782986    1.1064087115
C       -0.9013564825    0.9824949145   -2.9645162106
N       -1.2691797063   -1.9827295245    3.2881994600
N       -0.3377571860   -0.3005027030   -1.0828512667
O       -1.1973896696    0.6953255896   -1.5976861972
Cl      -7.4312336442    1.3494852119    4.4780148600
H       -2.7288250130    0.3545976843    3.7228716448
H       -5.2027363876    0.6943092570    0.1867023245
H       -4.6827222003    0.8004723870    5.1101123076
H       -7.1416147521    1.1739990023    1.6273370006
H       -2.9001452518    0.5056849376   -0.1014660200
H        0.2248736026   -1.5604323904    0.3830328103
H       -1.6611159964    1.6539548674   -3.3742038639
H       -0.8919518760    0.0601598638   -3.5540321874
H        0.0776616865    1.4647863165   -3.0420558472
24   

C       -1.5991348467   -1.4130348767    2.2555268600
C       -3.6268552309    0.6896172195    3.1728113957
C       -5.1322617909    0.5678907268    1.2889344638
C       -4.7156455366    0.9246411095    4.0206966573
C       -6.2155478148    0.8044208370    2.1435724028
C       -3.8174139897    0.5104993856    1.7909041406
C       -6.0178715363    0.9845274084    3.5157023188
C       -2.7281872320    0.2210183677    0.8545898188
C       -0.6435335575   -0.9400533406    0.0486616087
C       -1.6954988140   -0.6509689387    1.0481759948
C       -0.7882333048    1.0453815130   -2.9354859120
N       -1.4895807445   -2.0363191881    3.2332358134
N       -0.3925516139   -0.3866128002   -1.1196728974
O       -1.1579382104    0.6991865187   -1.6006925336
Cl      -7.3721612961    1.2766809104    4.5786807095
H       -2.6321800440    0.6612558940    3.6027766947
H       -5.3177565693    0.4207908007    0.2309041023
H       -4.5506786347    1.0609530819    5.0831812457
H       -7.2220871512    0.8447637940    1.7438791612
H       -2.9196163100    0.5711514510   -0.1482332577
H        0.0483628235   -1.7316675260    0.3148026517
H       -1.4819903300    1.7935389477   -3.3290288652
H       -0.8201343722    0.1616272724   -3.5806514718
H        0.2245823210    1.4591388498   -2.9480125216
24   

C       -1.7518902974   -1.4519597139    2.1933338582
C       -3.5937309092    0.8741198370    3.1105010944
C       -5.1726508497    0.4069260850    1.3454396928
C       -4.6544892049    1.0786823149    4.0006075418
C       -6.2292762612    0.6134745098    2.2405873105
C       -3.8387049712    0.5525955059    1.7658020581
C       -5.9805550891    0.9541271778    3.5741053903
C       -2.7520809865    0.2687134559    0.8132435211
C       -0.7571609635   -1.0257605977   -0.0111797472
C       -1.7896336607   -0.6794248021    0.9890873290
C       -0.6707240092    1.1059922175   -2.8953721521
N       -1.6921780674   -2.0864188860    3.1680856830
N       -0.4551403167   -0.4583204869   -1.1602565610
O       -1.1274389453    0.7024060971   -1.6043900550
Cl      -7.3010481223    1.2098797922    4.6877785614
H       -2.5748347393    0.9683270092    3.4697470941
H       -5.3909424904    0.1284956904    0.3206156387
H       -4.4496262311    1.3308639019    5.0345344709
H       -7.2535814858    0.5035585036    1.9041733056
H       -2.9304430828    0.6459114115   -0.1827618465
H       -0.1317639708   -1.8762350539    0.2372134141
H       -1.2939912360    1.9230891698   -3.2692485547
H       -0.7284134072    0.2687177452   -3.5981179956
H        0.3663352072    1.4496759264   -2.8352066006
24   

C       -1.9064545210   -1.5585774497    2.0808454282
C       -3.5779649447    1.0390696419    3.0225238563
C       -5.1808993591    0.2010525089    1.4263857924
C       -4.6077799777    1.2362327373    3.9500051770
C       -6.2077313115    0.3995253004    2.3573965981
C       -3.8562014732    0.5427831302    1.7410110205
C       -5.9319119493    0.9239253302    3.6246643777
C       -2.7725416628    0.2719534532    0.7684737499
C       -0.8528970463   -1.1059750430   -0.0954965908
C       -1.8775702890   -0.7419811384    0.9056471864
C       -0.5605136197    1.1794750463   -2.8450273179
N       -1.9046078222   -2.2349449404    3.0288236335
N       -0.4972878158   -0.5024187250   -1.2101590341
O       -1.0895763252    0.7193033997   -1.6015145025
Cl      -7.2150540309    1.1732669157    4.7825851562
H       -2.5558531151    1.2725830189    3.2994453125
H       -5.4141080180   -0.2211789995    0.4554373661
H       -4.3803654099    1.6287883685    4.9342085225
H       -7.2284537130    0.1405191677    2.1015272295
H       -2.9162738453    0.7251303314   -0.2013492396
H       -0.2861365211   -2.0050607999    0.1201217869
H       -1.1225780221    2.0538202963   -3.1848878600
H       -0.6364366123    0.3945628399   -3.6041586817
H        0.4907038482    1.4583241491   -2.7247652847
24   

C       -2.1254355142   -1.7787413069    1.9040758772
C       -3.6097717415    1.2638003549    2.9019942824
C       -5.1495685352   -0.0083291454    1.5500893830
C       -4.6310384970    1.5135370073    3.8265902119
C       -6.1683166823    0.2432858275    2.4769984802
C       -3.8589542731    0.5002980384    1.7545949253
C       -5.9190986602    1.0069414923    3.6225058396
C       -2.7809228899    0.2383431729    0.7674248840
C       -0.8697147640   -1.1465563926   -0.1158555356
C       -1.9584923745   -0.8398663736    0.8366322714
C       -0.4845340810    1.2011773153   -2.8020511183
N       -2.2379955139   -2.5588346829    2.7613364980
N       -0.4638323205   -0.5048651889   -1.1915560023
O       -1.0908870306    0.6869361089   -1.6165699453
Cl      -7.1914176277    1.3206556074    4.7767143183
H       -2.6165053545    1.6608555798    3.0790604655
H       -5.3598256682   -0.6059865424    0.6702101381
H       -4.4262995805    2.1025341458    4.7129396842
H       -7.1614643956   -0.1577129523    2.3118087787
H       -2.6925992936    0.9817208564   -0.0099486213
H       -0.3055668656   -2.0481228761    0.0962715927
H       -0.9863671492    2.1251764741   -3.1026191541
H       -0.5678609607    0.4728129109   -3.6145550084
H        0.5734453942    1.4155950036   -2.6221529066
24   

C       -2.3063125753   -1.9825935767    1.6969340803
C       -3.6717558345    1.4761751152    2.7343942179
C       -5.0763208709   -0.1945997034    1.7163771697
C       -4.6955006560    1.7836847284    3.6387571105
C       -6.0987420040    0.1147397562    2.6213243070
C       -3.8383306949    0.4617330580    1.7819738871
C       -5.9162887695    1.1028813824    3.5939849096
C       -2.7806753832    0.1955036753    0.7805720432
C       -0.8901398156   -1.1814815722   -0.1501975669
C       -2.0252426290   -0.9344989748    0.7637023620
C       -0.4536918005    1.2974082188   -2.7065791979
N       -2.5170802107   -2.8521918082    2.4422374491
N       -0.4522227881   -0.4806240505   -1.1750466397
O       -1.1127329723    0.6970018609   -1.5916072720
Cl      -7.1909642592    1.4861301728    4.7243305754
H       -2.7365065779    2.0225696950    2.7816069625
H       -5.2405970679   -0.9579873967    0.9639047784
H       -4.5464901036    2.5572018491    4.3830348795
H       -7.0433785869   -0.4140362385    2.5709427500
H       -2.4321765880    1.0721403543    0.2547340399
H       -0.3299633850   -2.0915039722    0.0344536930
H       -0.9050217193    2.2697445361   -2.9228687343
H       -0.5509422289    0.6571381242   -3.5885385969
H        0.6087549019    1.4428808851   -2.4870859355
24   

C       -2.4040598950   -2.0905855134    1.5690701170
C       -3.7329978760    1.6025718532    2.5981898435
C       -4.9901181546   -0.3179667533    1.8742243134
C       -4.7551945530    1.9314184443    3.4966946042
C       -6.0107874810    0.0125297086    2.7735571600
C       -3.8186970429    0.4536530014    1.7981605649
C       -5.9006005849    1.1364966336    3.5973312874
C       -2.7702458919    0.1739658063    0.8026811958
C       -0.9662606973   -1.2431528952   -0.2355171250
C       -2.0825399778   -0.9979280298    0.7024905639
C       -0.3866819218    1.3836336363   -2.6097753614
N       -2.6545760424   -2.9976027694    2.2551705821
N       -0.4946398583   -0.5007032691   -1.2152863009
O       -1.0914591969    0.7353600530   -1.5509493910
Cl      -7.1731992761    1.5466617337    4.7205342956
H       -2.8596604373    2.2416821161    2.5326984567
H       -5.1095470568   -1.1859580702    1.2351588041
H       -4.6640966783    2.8115976202    4.1223911011
H       -6.8989151305   -0.6057362361    2.8329389406
H       -2.3566166057    1.0568516877    0.3384445141
H       -0.4541782857   -2.1915738900   -0.1157118555
H       -0.7796699983    2.3943713575   -2.7507929909
H       -0.5100703702    0.8218868048   -3.5405845453
H        0.6798101990    1.4502097204   -2.3723445089
24   

C       -2.4674505910   -2.1954159846    1.4683327535
C       -3.8028999480    1.6722981283    2.4542650149
C       -4.9153170383   -0.4207628781    2.0429124787
C       -4.8094844565    2.0285666779    3.3595850479
C       -5.9198481447   -0.0618972796    2.9496684134
C       -3.8191535004    0.4288226513    1.8019796723
C       -5.8739382463    1.1625570730    3.6207863826
C       -2.7753754639    0.1255000407    0.8199558773
C       -1.0705513258   -1.3174800994   -0.3452195020
C       -2.1478895431   -1.0738024070    0.6391497175
C       -0.3382552051    1.4421318497   -2.5168287456
N       -2.7180199198   -3.1270496611    2.1207362083
N       -0.5806528955   -0.5442231180   -1.2919585719
O       -1.1077109679    0.7433205246   -1.5381563676
Cl      -7.1273941986    1.6073713095    4.7522890422
H       -2.9935137576    2.3694377257    2.2688559235
H       -5.0068950364   -1.3671526336    1.5225729311
H       -4.7687180138    2.9859249069    3.8658970035
H       -6.7475301413   -0.7374337163    3.1319733470
H       -2.3362518878    1.0043680267    0.3731551034
H       -0.6050008511   -2.2957187145   -0.2951831760
H       -0.6819271123    2.4779513835   -2.5867020579
H       -0.4523115825    0.9636081370   -3.4941422411
H        0.7209922017    1.4404094556   -2.2406455119
24   

C       -2.2733663923   -2.2025439101    1.9976958705
C       -3.9751265758    1.6758228162    2.9373681107
C       -4.7587528948   -0.4140081401    2.0437311949
C       -5.2721268432    1.9787934043    3.3673290699
C       -6.0545338906   -0.1074420931    2.4770083175
C       -3.6820258164    0.4639956177    2.2867020419
C       -6.3232988329    1.0877280424    3.1465558319
C       -2.3100903529    0.2317137599    1.8448447027
C       -0.2624556538   -1.0790281873    1.1797552844
C       -1.6589286615   -0.9563694792    1.6571434247
C        1.3756143058    2.0112717713    0.3903625153
N       -2.7484738954   -3.2341063705    2.2561539000
N        0.5913891783   -0.1690783965    0.7575973132
O        0.2365212572    1.1950064703    0.6634028515
Cl      -7.9409372420    1.4658742487    3.6846556777
H       -3.1855954812    2.3944254830    3.1264779087
H       -4.6279528177   -1.3376238424    1.4949520229
H       -5.4689821877    2.9142076799    3.8780475244
H       -6.8641901074   -0.8020090440    2.2851887341
H       -1.7247146203    1.1367213927    1.8119099907
H        0.1377037697   -2.0870048239    1.1664376560
H        1.0986005156    3.0670591526    0.4575104104
H        1.7503328027    1.8058983756   -0.6168542714
H        2.1712752800    1.8094513178    1.1146118502
24   

C       -2.2782470763   -2.2651927537    1.8152369464
C       -3.9961506733    1.7217359946    2.7601750678
C       -4.7500853089   -0.5027056508    2.2505015989
C       -5.2772662824    2.0542219306    3.2139080149
C       -6.0301121374   -0.1642025073    2.7075639598
C       -3.6928792103    0.4336197520    2.2785337927
C       -6.3060763569    1.1132684772    3.1958312547
C       -2.3293197772    0.1864521292    1.8271843570
C       -0.2975236561   -1.0806368689    1.0395925591
C       -1.6857161834   -0.9904576275    1.5528313242
C        1.4136243420    2.0354501965    0.5651785147
N       -2.7204047592   -3.3251763221    2.0102051284
N        0.5684307770   -0.1497928859    0.6924471276
O        0.2520338073    1.2256114897    0.7470279405
Cl      -7.9050727226    1.5279492891    3.7619994252
H       -3.2268161105    2.4849486386    2.7944501561
H       -4.6440548623   -1.5015433644    1.8547571943
H       -5.4786292382    3.0523359222    3.5851872082
H       -6.8237639888   -0.9017854743    2.6762844451
H       -1.7504788975    1.0933484214    1.7792780004
H        0.0892598995   -2.0874531528    0.9246238202
H        1.1607194501    3.0866405110    0.7295378891
H        1.7966592494    1.9175519331   -0.4528946664
H        2.1943829670    1.7459963037    1.2757308169
24   

C       -2.3531074468   -2.2647335984    1.4858523455
C       -4.0373094449    1.7617564647    2.5824471204
C       -4.7032566264   -0.5445049875    2.4588031237
C       -5.3148300039    2.1102322904    3.0331908042
C       -5.9805343171   -0.1874771993    2.9107331569
C       -3.6934809692    0.4284330712    2.2824798444
C       -6.2995221906    1.1386859890    3.2019287131
C       -2.3348400776    0.1771583629    1.8211768063
C       -0.3013077867   -1.0635512233    1.0022402531
C       -1.7116454066   -0.9874404719    1.4588991893
C        1.5224257377    2.0303930684    0.8201361002
N       -2.8188352691   -3.3327162891    1.4860268396
N        0.6189148226   -0.1357264317    0.8273655065
O        0.3667870816    1.2318324758    1.0732172972
Cl      -7.8947674695    1.5722319551    3.7645485372
H       -3.3050315899    2.5529699119    2.4669006075
H       -4.5754186155   -1.5965051075    2.2663380745
H       -5.5477909216    3.1451325536    3.2553621788
H       -6.7376020256   -0.9528107191    3.0376425350
H       -1.7596484504    1.0851745007    1.7755305103
H        0.0535903805   -2.0602180542    0.7627192492
H        1.2987467258    3.0801713977    1.0297287768
H        1.8242085371    1.9352485308   -0.2274411050
H        2.3499504183    1.7104340487    1.4608111033
24   

C       -2.4824317646   -2.1770121450    1.1737172173
C       -4.1145119622    1.7727754964    2.3875967431
C       -4.6148144859   -0.5605952122    2.6728124839
C       -5.3951954298    2.1051082164    2.8426736272
C       -5.8960279668   -0.2215621644    3.1261275696
C       -3.6926259620    0.4337010917    2.2776639051
C       -6.3001581080    1.1109807857    3.2127174394
C       -2.3392001839    0.1908555698    1.7946307267
C       -0.3269547923   -1.0677017509    0.9458633389
C       -1.7482016734   -0.9634153387    1.3553504108
C        1.5909217092    1.9578492198    1.1246267316
N       -3.0384641018   -3.1878690191    1.0122430937
N        0.6528322704   -0.1863934285    0.9572313574
O        0.4713232803    1.1292443658    1.4378714268
Cl      -7.8985451648    1.5254540010    3.7807558244
H       -3.4449635840    2.5788366200    2.1091854081
H       -4.3805184005   -1.6144634866    2.6784926159
H       -5.6934775296    3.1448635960    2.9102220656
H       -6.5851750804   -1.0040213241    3.4223097681
H       -1.7675646131    1.1008327719    1.7234544377
H       -0.0243049390   -2.0375573752    0.5660208034
H        1.3724279553    2.9936409631    1.3991621094
H        1.8072132048    1.9160566229    0.0523704356
H        2.4721228835    1.6219581457    1.6793726817
24   

C       -2.5851632694   -2.0890484107    1.0446090011
C       -4.2092355145    1.7544030269    2.2265761052
C       -4.5040965444   -0.5452241232    2.8624679702
C       -5.4922900592    2.0505569420    2.7008478642
C       -5.7877706628   -0.2447408386    3.3343404566
C       -3.6928330396    0.4471586397    2.2741271506
C       -6.2962754258    1.0529110223    3.2539987478
C       -2.3362554356    0.2226941760    1.7834328810
C       -0.3847233776   -1.0485566424    0.8207126923
C       -1.7901876614   -0.9211735942    1.2695007613
C        1.6517198524    1.8665402900    1.2812212764
N       -3.2022742827   -3.0590749397    0.8578690533
N        0.6266519460   -0.2076487132    0.8931193782
O        0.4974073163    1.0575496442    1.5080620332
Cl      -7.8975731245    1.4229350805    3.8441132081
H       -3.6148195673    2.5570985647    1.8048435487
H       -4.1562845919   -1.5617429398    2.9930656783
H       -5.8716253836    3.0640044892    2.6407231023
H       -6.3952589461   -1.0264625630    3.7755075210
H       -1.7675644316    1.1348667640    1.6972049977
H       -0.1291678345   -1.9936908152    0.3540926222
H        1.4715126078    2.8798858622    1.6507973045
H        1.8770962143    1.9170470674    0.2111780802
H        2.5134731927    1.4448296646    1.8071754063
24   

C       -2.6698375616   -1.9958176464    0.9641826193
C       -4.2958689107    1.7215019267    2.0808163330
C       -4.3911863389   -0.4900534415    3.0226822231
C       -5.5808266466    1.9845235940    2.5701830939
C       -5.6765063203   -0.2242304220    3.5098469450
C       -3.6882884040    0.4696779680    2.2700833705
C       -6.2858995726    1.0123744460    3.2836436830
C       -2.3200100562    0.2621683884    1.7899872250
C       -0.4412418240   -1.0100360296    0.6954832489
C       -1.8252607721   -0.8645447917    1.1978699391
C        1.7263651109    1.7660705159    1.3752797877
N       -3.3322248075   -2.9347072171    0.7742128870
N        0.5987060678   -0.2085599852    0.7974824175
O        0.5243351647    1.0080222301    1.5120148110
Cl      -7.8896799711    1.3411422264    3.8911881664
H       -3.7727178431    2.4994552079    1.5362178077
H       -3.9453210320   -1.4520754802    3.2474209380
H       -6.0387789349    2.9515317150    2.3977877034
H       -6.2063248292   -0.9827811295    4.0742404772
H       -1.7477577048    1.1739634560    1.7124394276
H       -0.2332493685   -1.9300185348    0.1601676808
H        1.5916777136    2.7560914807    1.8198398191
H        1.9821560429    1.8867324804    0.3177843441
H        2.5498681371    1.2570882719    1.8851001735
24   

C       -2.7297968442   -1.8867781710    0.8732231926
C       -4.3885226831    1.6604321348    1.9415805671
C       -4.2807531528   -0.4013307579    3.1789364435
C       -5.6734154762    1.8945705006    2.4461067707
C       -5.5657329659   -0.1653195484    3.6818461879
C       -3.6862883266    0.4921697844    2.2723346694
C       -6.2764936406    0.9813833058    3.3158172407
C       -2.3051512318    0.3077274377    1.7967008725
C       -0.4901256105   -0.9235331985    0.5594632859
C       -1.8518796346   -0.7833601709    1.1180459170
C        1.7860826035    1.6999696795    1.4585527726
N       -3.4216442135   -2.8015740158    0.6715637237
N        0.5703897934   -0.1542364513    0.6901621092
O        0.5421648248    1.0009164419    1.5035047025
Cl      -7.8801819954    1.2738437622    3.9418922416
H       -3.9396295305    2.3897996580    1.2767563028
H       -3.7454534403   -1.2906337601    3.4930595085
H       -6.2106496630    2.7926717155    2.1644965037
H       -6.0168817536   -0.8756368439    4.3648276685
H       -1.7306393833    1.2207949703    1.7483272984
H       -0.3215835101   -1.8069770192   -0.0465107879
H        1.6935880550    2.6532311783    1.9864267162
H        2.0738314231    1.8980110780    0.4211705407
H        2.5683812770    1.1035658313    1.9376440269
24   

C       -2.8007516213   -1.7605431246    0.7368119876
C       -4.4771096806    1.5474805654    1.8092118007
C       -4.1805235947   -0.2847690089    3.3438705214
C       -5.7661814829    1.7590959988    2.3131949632
C       -5.4695553272   -0.0712254715    3.8466368676
C       -3.6799458227    0.5031366708    2.2969097657
C       -6.2762088918    0.9490820960    3.3327781061
C       -2.2906528192    0.3347038069    1.8132430725
C       -0.5331915864   -0.8457501972    0.4518999231
C       -1.8815513458   -0.7065345451    1.0410199660
C        1.8450861801    1.6040866649    1.5528924898
N       -3.5273041772   -2.6331743718    0.4784783767
N        0.5530371173   -0.1231374371    0.6285449997
O        0.5696559448    0.9631376893    1.5321112481
Cl      -7.8850425936    1.2130131070    3.9583638982
H       -4.0986147762    2.1929962263    1.0246620393
H       -3.5673506573   -1.0755300118    3.7618142385
H       -6.3795915060    2.5581638345    1.9135686924
H       -5.8502375409   -0.7002745975    4.6427885733
H       -1.6935344291    1.2340957794    1.8462948487
H       -0.4017081105   -1.6836203922   -0.2239086336
H        1.7920101660    2.5130761790    2.1585648814
H        2.1512726317    1.8744248028    0.5373701482
H        2.5944106151    0.9335931782    1.9844239313
24   

C       -2.8983910847   -1.5265932778    0.4991226778
C       -4.5765784500    1.3523062711    1.6566587331
C       -4.0787118184   -0.1187921083    3.5019260073
C       -5.8830009987    1.5075973996    2.1355823227
C       -5.3860503422    0.0386792668    3.9777312053
C       -3.6613991638    0.5378197939    2.3353332071
C       -6.2994047300    0.8536989200    3.3002347133
C       -2.2727705683    0.3747913830    1.8349642537
C       -0.5455175710   -0.8084477060    0.4324797361
C       -1.9098598969   -0.6016636496    0.9640328724
C        1.9172202793    1.5270361614    1.5970664384
N       -3.6811727776   -2.2930061550    0.1041833333
N        0.5710460036   -0.1460655800    0.6519708882
O        0.6060066145    0.9684491709    1.5184884051
Cl      -7.9290790921    1.0498665366    3.8961269120
H       -4.2729829630    1.8633038077    0.7498517973
H       -3.3858110360   -0.7580646072    4.0374661339
H       -6.5840338775    2.1375933462    1.6006915147
H       -5.6999603421   -0.4761514788    4.8781975449
H       -1.5686881137    1.0980589711    2.2169088596
H       -0.4341521421   -1.6410667932   -0.2533973140
H        1.9124636122    2.3869561347    2.2726897103
H        2.2466321089    1.8568489489    0.6069363704
H        2.6223972187    0.7817974204    1.9778271125
24   

C       -2.9617242669   -1.2820611379    0.2518504806
C       -4.6671477723    1.1338425742    1.5434660754
C       -3.9880707729    0.0947509093    3.6117530476
C       -5.9770468290    1.2348940436    2.0267906427
C       -5.2996702867    0.1975078127    4.0909937697
C       -3.6519687322    0.5852748686    2.3401144060
C       -6.3043063325    0.7732342428    3.3060176094
C       -2.2745298067    0.4163310155    1.8226651801
C       -0.5624650063   -0.7619182676    0.4047593323
C       -1.9398718424   -0.4912049836    0.8676235329
C        1.9235933936    1.4811342307    1.6919003700
N       -3.7735513510   -1.9347664864   -0.2687794012
N        0.5676236799   -0.1470455181    0.6840988305
O        0.5932266819    0.9934848133    1.5177950431
Cl      -7.9385632522    0.9027628325    3.9075461044
H       -4.4371116990    1.4832556391    0.5430076114
H       -3.2279774377   -0.3690927849    4.2302272825
H       -6.7505357173    1.6688941469    1.4040292114
H       -5.5467608070   -0.1765790517    5.0776222349
H       -1.5030886882    0.8321814304    2.4539469364
H       -0.4555656650   -1.5887550191   -0.2887696679
H        1.9295529116    2.2803152109    2.4383398476
H        2.3044788521    1.8768117136    0.7455170685
H        2.5821476654    0.6757933081    2.0322971378
24   

C       -2.9913810788   -1.1586972715    0.0725227857
C       -4.7464151343    0.9702639857    1.4980092406
C       -3.9207629511    0.2964010866    3.6637401211
C       -6.0380594979    1.0758141625    2.0270537855
C       -5.2149283021    0.4044713053    4.1870412184
C       -3.6664225934    0.5959790239    2.3136018339
C       -6.2838755412    0.7979060088    3.3754528633
C       -2.3050202075    0.4131539902    1.7825601359
C       -0.5940808410   -0.6712498938    0.2888028793
C       -1.9741429113   -0.4198921491    0.7565050256
C        1.9152450926    1.3973880251    1.8036992499
N       -3.8007018004   -1.7625864251   -0.5076169642
N        0.5415175323   -0.0973997762    0.6275241290
O        0.5760621917    0.9736793039    1.5484874709
Cl      -7.8967572777    0.9304705903    4.0315197388
H       -4.5853399678    1.1829680055    0.4468706914
H       -3.1115264343   -0.0254908897    4.3094630341
H       -6.8607836749    1.3703155038    1.3859910635
H       -5.3981582659    0.1760277455    5.2304491132
H       -1.5242476883    0.7475867988    2.4493857731
H       -0.4890829022   -1.4429016078   -0.4659513509
H        1.9222978737    2.1334229389    2.6124658308
H        2.3414196086    1.8535325273    0.9050731654
H        2.5345263748    0.5441839680    2.0982081039
24   

C       -2.9770078425   -1.1003987139   -0.0854593930
C       -4.8122866022    0.7848956939    1.4792181568
C       -3.8572551228    0.4598170298    3.6730562081
C       -6.0806844731    0.9158684444    2.0567957930
C       -5.1291051411    0.5930523406    4.2427307588
C       -3.6781661000    0.5576892843    2.2793291669
C       -6.2513771299    0.8217260151    3.4411491053
C       -2.3295670035    0.3707284678    1.7380345428
C       -0.5976772000   -0.5712988516    0.1708037335
C       -1.9841849656   -0.3786066222    0.6501094653
C        1.8973581209    1.3232072364    1.9184097916
N       -3.7658207004   -1.6876144876   -0.7094418394
N        0.5316993635   -0.0182475514    0.5619059937
O        0.5583883708    0.9665889210    1.5746034816
Cl      -7.8364482104    0.9845977252    4.1555730451
H       -4.7214401817    0.8750062395    0.4027973648
H       -3.0072028578    0.2716764789    4.3191925672
H       -6.9439764104    1.0911404955    1.4253878426
H       -5.2526365181    0.5142257314    5.3165215419
H       -1.5479825499    0.6771303739    2.4163651093
H       -0.4794238360   -1.2764655346   -0.6446467996
H        1.8920653885    1.9806656944    2.7922736920
H        2.3714350473    1.8470593874    1.0829634351
H        2.4810264943    0.4278305303    2.1548716370
24   

C       -2.9449408305   -1.0331587008   -0.2517152981
C       -4.8735734205    0.5957929541    1.4801077994
C       -3.7998424452    0.6202071600    3.6427355037
C       -6.1162138722    0.7589145696    2.1041531448
C       -5.0468107474    0.7847391450    4.2568403256
C       -3.6901476515    0.5129796329    2.2400943754
C       -6.2157132698    0.8519727111    3.4947682377
C       -2.3529707718    0.3251781605    1.6844087405
C       -0.5895821278   -0.4549117581    0.0608405940
C       -1.9843552283   -0.3311422658    0.5425998709
C        1.8802078200    1.2422477942    2.0311865315
N       -3.7035759655   -1.6059809281   -0.9247567238
N        0.5306883062    0.0743588072    0.5082029596
O        0.5458477954    0.9566395105    1.6113767018
Cl      -7.7698861221    1.0537778652    4.2649679729
H       -4.8581508152    0.5605601351    0.3981764155
H       -2.9147757129    0.5652115217    4.2665487911
H       -7.0158802028    0.8176477773    1.5025466368
H       -5.1136484698    0.8583208558    5.3360366405
H       -1.5724625391    0.6215936906    2.3669352632
H       -0.4532317691   -1.0826774539   -0.8130137828
H        1.8602119804    1.8130705817    2.9637643219
H        2.3954347543    1.8304438771    1.2659095813
H        2.4338171950    0.3129316196    2.1991580762
24   

C       -2.9245093622   -0.9226934903   -0.4107198228
C       -4.9311168516    0.3851079030    1.5176711710
C       -3.7690450264    0.7738806212    3.5951830499
C       -6.1519238462    0.5749412108    2.1768506488
C       -4.9945814332    0.9637749083    4.2435003057
C       -3.7078099340    0.4632814722    2.2183410361
C       -6.1969250875    0.8611094262    3.5425145923
C       -2.3785682327    0.2853814995    1.6476461740
C       -0.5906080361   -0.3393186055   -0.0166854712
C       -1.9932225468   -0.2726569041    0.4582696633
C        1.8705496189    1.1283957138    2.1417819295
N       -3.6482214024   -1.4592605336   -1.1491898639
N        0.5255947715    0.1450494991    0.4893675802
O        0.5383802462    0.9072036200    1.6785422309
Cl      -7.7249406576    1.0949611632    4.3548305313
H       -4.9871868134    0.2043991775    0.4541071316
H       -2.8598849515    0.8604862715    4.1795256099
H       -7.0789631415    0.5049961107    1.6195271621
H       -5.0175193976    1.1920368403    5.3027217999
H       -1.5997073330    0.5790212376    2.3313462479
H       -0.4410412542   -0.8782097464   -0.9460208428
H        1.8453657370    1.6131674341    3.1217501387
H        2.4085625416    1.7732969442    1.4405435484
H        2.4045645725    0.1772258655    2.2331879743
24   

C       -2.9225421170   -0.6403591661   -0.5814978336
C       -4.9507884462    0.1259394117    1.6127475533
C       -3.7594659596    0.9528811709    3.5348599623
C       -6.1598532458    0.3241799598    2.2912327450
C       -4.9729374660    1.1472142941    4.2037543204
C       -3.7113908060    0.4357510970    2.2202635520
C       -6.1845005503    0.8346828628    3.5889719126
C       -2.3866524486    0.2816717306    1.6344289465
C       -0.5832636678   -0.2680834678   -0.0392200694
C       -1.9963171791   -0.1813317332    0.4059734288
C        1.9221692038    0.8717542882    2.2748416277
N       -3.6274672644   -1.0267291611   -1.4248257404
N        0.5473854578    0.0612090167    0.5535441241
O        0.5830993703    0.6177300215    1.8510139470
Cl      -7.6984786080    1.0773795487    4.4246158089
H       -5.0484381177   -0.2715584532    0.6155931535
H       -2.8449212887    1.2118558366    4.0565143689
H       -7.0952968835    0.0778149934    1.8020875420
H       -4.9784041224    1.5451013198    5.2118465887
H       -1.6128979445    0.5903869396    2.3151609003
H       -0.4367194361   -0.6737072693   -1.0345014094
H        1.9165990487    1.2860412235    3.2869433923
H        2.4007726067    1.5893424566    1.6014031686
H        2.5003807638   -0.0573937751    2.2763655417
