14   

C       -1.7011906919   -0.2959297613    0.1205194828
C        0.4076507823   -0.7134711401    0.1434816868
C        1.7730573129   -1.3318565289    0.0555675803
C        0.2773311457    0.8242679608    0.1942988081
N        1.3613761037    2.0365411118   -1.9197183580
N       -1.1913227831    0.9108314755    0.1723614029
N       -0.7573022513   -1.3064993561    0.0911882411
N        0.8682055063    1.4878202870   -0.9739554013
N        1.8227321580   -2.6275193672   -0.2958711529
O        2.7942452504   -0.6755389619    0.1547578979
H       -2.7725679912   -0.4822411827    0.0993087372
H        0.7080039900    1.2170656398    1.1249220146
H        2.7417109701   -3.0533835242   -0.3786888726
H        0.9749152850   -3.1821535335   -0.3713890062
14   

C       -1.7273878785   -0.3290658482    0.1096055114
C        0.3844786400   -0.7221975334    0.2211090475
C        1.7549254493   -1.3379939925    0.1760723541
C        0.2360204193    0.8170008366    0.1814011877
N        1.3688803978    1.9233675348   -1.9647660397
N       -1.2320605035    0.8847993263    0.1134074339
N       -0.7725796878   -1.3288754238    0.1532991774
N        0.8551162811    1.4210103560   -1.0042653810
N        1.8391590504   -2.5547442420   -0.3971478306
O        2.7631820597   -0.6933516475    0.4006185839
H       -2.7958368008   -0.5288625664    0.0707370825
H        0.6353774533    1.2651071960    1.1010748249
H        2.7656384917   -2.9654081970   -0.4741411433
H        1.0039933331   -3.1060423108   -0.5720888360
14   

C       -1.7313600291   -0.3398432039    0.0281186285
C        0.3690076636   -0.7524051844    0.2530198917
C        1.7269031564   -1.4014634872    0.2965033448
C        0.2382949966    0.7905043621    0.1545090687
N        1.4562104667    1.8098706570   -1.9879989291
N       -1.2248273255    0.8693739074    0.0240035265
N       -0.7897423791   -1.3473223594    0.1351078115
N        0.9068548048    1.3452487318   -1.0281132631
N        1.8911293754   -2.4848975083   -0.4952976491
O        2.7050858197   -0.8111664616    0.7159495950
H       -2.7993851145   -0.5307752960   -0.0483971095
H        0.6068760424    1.2664717491    1.0732298076
H        2.8230533101   -2.8900862172   -0.5202927436
H        1.0864239466   -3.0090149249   -0.8261528970
14   

C       -1.7346149498   -0.2961788792   -0.0345891800
C        0.3474558878   -0.7520451430    0.2677182009
C        1.6803901280   -1.4461387210    0.3928176440
C        0.2566422194    0.7940776668    0.1112689789
N        1.5279596641    1.7105691202   -2.0465486563
N       -1.2007094596    0.9011422362   -0.0569731146
N       -0.8201742902   -1.3216454891    0.1231814907
N        0.9571833144    1.2908142309   -1.0784350936
N        1.9729381869   -2.3616467768   -0.5622428206
O        2.5966581864   -0.9442980074    1.0160051093
H       -2.8046875516   -0.4650561700   -0.1313620576
H        0.6169640624    1.2942736816    1.0205466358
H        2.9052095185   -2.7647658712   -0.5154193858
H        1.2279044348   -2.8434242613   -1.0562231260
14   

C       -1.7534610341   -0.2775826961   -0.0181702833
C        0.3180538823   -0.7738718897    0.2958949870
C        1.6277624011   -1.5074585558    0.4643432764
C        0.2640426328    0.7698119380    0.0774664115
N        1.5299559482    1.5785122427   -2.1261794437
N       -1.1911245867    0.9049260905   -0.0884220355
N       -0.8635305638   -1.3180770280    0.1743132127
N        0.9633840355    1.2058914717   -1.1364399835
N        2.0526648457   -2.2348355626   -0.6018773895
O        2.4640853796   -1.1257586756    1.2600504414
H       -2.8278154707   -0.4242739835   -0.1028140087
H        0.6402153598    1.2970169140    0.9649380459
H        2.9793054745   -2.6416415474   -0.4997199604
H        1.3782059792   -2.6581738600   -1.2315805182
14   

C       -1.7680030884   -0.2460644668    0.0784331551
C        0.2996597480   -0.7920059971    0.3356095833
C        1.5871909244   -1.5656348305    0.5192980856
C        0.2807000240    0.7442573086    0.0490003350
N        1.4763587820    1.4389577209   -2.2315902419
N       -1.1751226194    0.9140328938   -0.0720618814
N       -0.9019330029   -1.3019450919    0.2908975367
N        0.9425184379    1.1158804385   -1.2067335037
N        2.1277107170   -2.0930091785   -0.6171458446
O        2.3326419481   -1.3501135068    1.4545870769
H       -2.8484764957   -0.3646056216    0.0401612606
H        0.6993789218    1.2988094110    0.9000629913
H        3.0428240905   -2.5170047376   -0.4815926501
H        1.5209701635   -2.4350968164   -1.3552411056
14   

C       -1.7830052955   -0.1865549537    0.2354845681
C        0.2774416643   -0.8051179342    0.3704896714
C        1.5384658250   -1.6240434986    0.5644918811
C        0.2934019919    0.7187467279    0.0131790579
N        1.3402335468    1.3014627162   -2.3699756763
N       -1.1600923567    0.9389915993   -0.0203972222
N       -0.9433418697   -1.2615065544    0.4521809178
N        0.8745248279    1.0259015801   -1.2988547534
N        2.1992214636   -1.9494307370   -0.5922723189
O        2.1516258968   -1.6505214384    1.6129167362
H       -2.8671063677   -0.2648747017    0.2750037539
H        0.7827977408    1.2946889722    0.8105421844
H        3.0900492980   -2.4141995102   -0.4275342116
H        1.6722438329   -2.1727325212   -1.4295685427
14   

C       -1.7822565193   -0.0887003955    0.4085912897
C        0.2545751482   -0.8047040013    0.3858589030
C        1.4831073331   -1.6721015969    0.5933588622
C        0.3027634664    0.7012822517   -0.0464225339
N        1.1194892108    1.1642433011   -2.5437515084
N       -1.1360677730    0.9906547318    0.0378627765
N       -0.9729460204   -1.1864168516    0.6172649180
N        0.7596605730    0.9387105493   -1.4210029702
N        2.2774708666   -1.8110286572   -0.5236492329
O        1.8931472879   -2.0366392327    1.6770965320
H       -2.8611101877   -0.1146622538    0.5441900020
H        0.8848533684    1.2910970211    0.6746679937
H        3.1183671485   -2.3561795337   -0.3406671275
H        1.8619061061   -1.8461931437   -1.4466210348
14   

C       -1.7614657316   -0.0206292499    0.5550528196
C        0.2390099571   -0.8274062185    0.3870258388
C        1.4329334211   -1.7487110592    0.5755436052
C        0.3093620072    0.6659019749   -0.0871899648
N        0.8673572155    1.0463510419   -2.6691924990
N       -1.1016737119    1.0233548635    0.1149675821
N       -0.9825158713   -1.1446834259    0.7263814577
N        0.6280821392    0.8558188104   -1.5079550858
N        2.3557810668   -1.7023535717   -0.4539749633
O        1.6538353912   -2.4247297917    1.5605302593
H       -2.8264416260    0.0005570339    0.7749609793
H        0.9802634021    1.2495695463    0.5574985900
H        3.1469073943   -2.3252506750   -0.2974864357
H        2.0863378965   -1.4777256261   -1.4020366046
14   

C       -1.7440549361    0.0401245081    0.6212222214
C        0.2232454515   -0.8375290676    0.3737468881
C        1.3764366113   -1.8157945417    0.5457294184
C        0.3118612943    0.6465596772   -0.1325364808
N        0.6858584297    0.9195365999   -2.7619203208
N       -1.0711948937    1.0579596468    0.1424716362
N       -0.9940601596   -1.1057830572    0.7691629549
N        0.5335455784    0.7803549669   -1.5784216334
N        2.4332023924   -1.6226293154   -0.3283450838
O        1.4315958767   -2.7110684363    1.3656612527
H       -2.7960396704    0.0978519958    0.8913631744
H        1.0418866998    1.2240897634    0.4502220733
H        3.1839370130   -2.3009849480   -0.2071591454
H        2.3880153206   -1.0650061757   -1.1684706179
14   

C       -1.7418870203   -0.3644458959   -0.1653222808
C        0.3485540042   -0.7484078713    0.2830202006
C        1.6090552851   -1.5423752629    0.5939521648
C        0.1247883611    0.8000940600    0.3898817965
N        1.3787931026    2.1746231832   -1.5254208541
N       -1.3121587264    0.8463084755    0.0918911771
N       -0.7705428138   -1.3347123893   -0.0574983807
N        0.8298238249    1.5509184538   -0.6575909132
N        2.7542834529   -0.7673156778    0.7026709921
O        1.6982903975   -2.7536592869    0.6408175246
H       -2.7740179596   -0.5862657861   -0.4270333635
H        0.3509180401    1.1762087566    1.3959886191
H        3.5973944243   -1.3152162928    0.8687506878
H        2.7787075319    0.2382323362    0.7907954304
14   

C       -1.7513687015   -0.3569983380   -0.1102410908
C        0.3455043941   -0.7562158356    0.2806253148
C        1.6294302241   -1.5332064724    0.5137434681
C        0.1503806891    0.7957634342    0.3433430871
N        1.4001033062    2.0680324141   -1.6437235324
N       -1.2941370548    0.8553194268    0.0863417646
N       -0.7916483037   -1.3387992608    0.0000809404
N        0.8496379141    1.4925644781   -0.7443458612
N        2.7221039350   -0.7306094263    0.8123324212
O        1.7838762800   -2.7280162327    0.3537940272
H       -2.7948394671   -0.5707230227   -0.3304528779
H        0.4074570620    1.2016356880    1.3296616194
H        3.5811581266   -1.2648750059    0.9366442956
H        2.6632765789    0.2087804987    1.1800332213
14   

C       -1.7647356823   -0.3478535380   -0.0313232228
C        0.3426580357   -0.7366986184    0.2981037189
C        1.6517761835   -1.4883338979    0.4544104601
C        0.1542394689    0.8166830181    0.3084826950
N        1.3690259866    1.9948675073   -1.7560856553
N       -1.2982380835    0.8702306012    0.0981524907
N       -0.8034825291   -1.3284209969    0.0824279861
N        0.8317410036    1.4628079082   -0.8229366856
N        2.6887786218   -0.7091008631    0.9405229988
O        1.8673753451   -2.6302851443    0.0992051248
H       -2.8158755047   -0.5663113415   -0.2056297498
H        0.4435872669    1.2595637646    1.2690812451
H        3.5616748793   -1.2292491717    1.0198163922
H        2.5496089623    0.1060085461    1.5230832230
14   

C       -1.7517010566   -0.3385322863    0.0232307037
C        0.3658459686   -0.7068239256    0.2950943158
C        1.6941680767   -1.4335579347    0.3945407396
C        0.1715100070    0.8460139922    0.2580722620
N        1.3303940456    1.9419757630   -1.8820153321
N       -1.2877443185    0.8855130084    0.0955701575
N       -0.7822824336   -1.3119433670    0.1368583447
N        0.8167702302    1.4476620479   -0.9155420746
N        2.6691108802   -0.7380782834    1.0790351526
O        1.9704016789   -2.4820044527   -0.1541443108
H       -2.8070284078   -0.5664885072   -0.1083615364
H        0.4937257065    1.3236679976    1.1909713721
H        3.5512313153   -1.2460531207    1.1257956625
H        2.4533504593   -0.0664619895    1.8053509422
14   

C       -1.7473088232   -0.3422132738    0.0959695965
C        0.3815438403   -0.6771151668    0.2972371969
C        1.7274310793   -1.3741258488    0.3559239051
C        0.1693303269    0.8719650175    0.2097125435
N        1.2416354475    1.8802366982   -2.0165358138
N       -1.2959728647    0.8888815407    0.1059002931
N       -0.7629911232   -1.3019472602    0.2073964817
N        0.7657309651    1.4266644534   -1.0116491817
N        2.6324487356   -0.8119915624    1.2206433041
O        2.0793973976   -2.2681608570   -0.3881326867
H       -2.8042905484   -0.5852304084    0.0139848331
H        0.5283142413    1.3879310208    1.1083139862
H        3.5268358010   -1.2994060484    1.2328650578
H        2.3431928356   -0.2953191967    2.0430437251
14   

C       -1.6973093568   -0.3432887092    0.1734521849
C        0.4404894801   -0.6331122577    0.2944091480
C        1.8085438749   -1.2822926151    0.3324212919
C        0.2002034656    0.9080628477    0.1638755492
N        1.1845056322    1.8325363896   -2.1377322721
N       -1.2685904969    0.8950478904    0.1191694621
N       -0.6926071850   -1.2834666992    0.2834321665
N        0.7458913929    1.4191458765   -1.0992937815
N        2.6231474973   -0.8926953201    1.3556022831
O        2.2817453764   -1.9034776450   -0.5991500629
H       -2.7523779379   -0.6056432174    0.1420943710
H        0.5903918958    1.4592902712    1.0281870648
H        3.5473382928   -1.3190088912    1.3262758961
H        2.2487993659   -0.5803115867    2.2449157452
14   

C       -1.6792619705   -0.3261300831    0.2997722003
C        0.4597158670   -0.5986504840    0.3087769703
C        1.8439117054   -1.2027690333    0.3335417871
C        0.2068037792    0.9306732103    0.1116478431
N        1.0999932925    1.7223573403   -2.2745166556
N       -1.2627908115    0.9077110638    0.1413739309
N       -0.6637878163   -1.2551619664    0.4197703984
N        0.6985601961    1.3712771642   -1.1990729041
N        2.5802614216   -1.0076679452    1.4574601454
O        2.4277073719   -1.5081809742   -0.6889111296
H       -2.7330006629   -0.5926393995    0.3395411775
H        0.6380233706    1.5243235558    0.9272662717
H        3.5334922279   -1.3594815506    1.4000295536
H        2.1394545211   -0.8986437534    2.3649303702
14   

C       -1.6501914931   -0.3072775359    0.4359442350
C        0.4856122177   -0.5627934452    0.3410906135
C        1.8849345913   -1.1207718136    0.3602427515
C        0.2110497949    0.9472073669    0.0661652440
N        1.0081544135    1.6141310364   -2.3906159958
N       -1.2557217514    0.9142160718    0.1652656503
N       -0.6195197430   -1.2178290953    0.5750804009
N        0.6462278132    1.3197510627   -1.2848810551
N        2.5459333391   -1.1279410189    1.5393450526
O        2.5488023043   -1.1764242733   -0.6584432834
H       -2.6980001268   -0.5773984091    0.5459209051
H        0.6725173771    1.5874485903    0.8284280728
H        3.5174806815   -1.4246172508    1.4855137339
H        2.0473292376   -1.1800926342    2.4218967845
14   

C       -1.6190801870   -0.2698720072    0.5164455996
C        0.5117357388   -0.5169950385    0.3501013812
C        1.9224868327   -1.0388321313    0.3794549617
C        0.2160623447    0.9676361074   -0.0085262956
N        0.9273014265    1.5110963644   -2.5211123138
N       -1.2462810329    0.9313790883    0.1444108489
N       -0.5748959048   -1.1609154409    0.6823440768
N        0.6015056216    1.2708178127   -1.3915881307
N        2.4964020544   -1.2534288673    1.5800398381
O        2.6552762857   -0.9070142184   -0.5841424798
H       -2.6597235756   -0.5382196415    0.6838155114
H        0.6979435565    1.6540556573    0.6991301029
H        3.4777137819   -1.5191295137    1.5573842088
H        1.9349092470   -1.4329163548    2.4065270543
14   

C       -1.5892528005   -0.2581438188    0.5702221761
C        0.5419548465   -0.4705212327    0.3761538444
C        1.9677113205   -0.9442189985    0.4209996901
C        0.2114892658    0.9814541624   -0.0582800305
N        0.8657917139    1.4235400063   -2.6058323011
N       -1.2472848653    0.9261974551    0.1228479856
N       -0.5238614388   -1.1175148307    0.7666975862
N        0.5643586355    1.2264893519   -1.4614730463
N        2.4545427461   -1.3685678446    1.6010429526
O        2.7567409194   -0.6483278925   -0.4584829205
H       -2.6211282043   -0.5359838753    0.7727364757
H        0.6918689303    1.7130107742    0.6039064399
H        3.4423588621   -1.6081441565    1.6195938473
H        1.8351143575   -1.6641092362    2.3493059961
14   

C       -1.7185990358   -0.3035614416    0.1116195959
C        0.3696438190   -0.7438078203   -0.1461933379
C        1.7067045497   -1.3940819814   -0.3581411197
C        0.2963067926    0.7348939343    0.3039455367
N        1.2683864035    2.3992372192   -1.5395595792
N       -1.1666784777    0.8474647507    0.4115197605
N       -0.8121581998   -1.2992306751   -0.2036970763
N        0.8240479549    1.6527839918   -0.7123215136
N        1.8863852030   -2.6263303012    0.1450787747
O        2.6768800033   -0.7536069143   -0.7222139015
H       -2.7949671133   -0.4597695642    0.1160992372
H        0.8035245380    0.8797657336    1.2664858152
H        2.8151370404   -3.0282427726    0.0501844862
H        1.0973112287   -3.1955500948    0.4360647238
14   

C       -1.7060138760   -0.2981544520    0.1122683770
C        0.3901938733   -0.7301349238   -0.0835396648
C        1.7393819386   -1.3651612835   -0.2542185729
C        0.2961868070    0.7704192003    0.2705846787
N        1.2759883618    2.3383134840   -1.6517446059
N       -1.1693148968    0.8739471282    0.3516889486
N       -0.7855010862   -1.2999823268   -0.1358346871
N        0.8281782166    1.6337059573   -0.7904727993
N        1.8506531664   -2.6666299661    0.0501410765
O        2.7390575614   -0.7063096999   -0.4794507530
H       -2.7807442564   -0.4653461208    0.1132242116
H        0.7886845449    0.9785940394    1.2293117929
H        2.7752295594   -3.0822422425   -0.0224727338
H        1.0297377136   -3.2368145691    0.2308180538
14   

C       -1.7037635021   -0.2952737635    0.1268218120
C        0.3984774884   -0.7219934193   -0.0024243345
C        1.7559785486   -1.3451779884   -0.1433545785
C        0.2885924185    0.7959980554    0.2512724117
N        1.2893415127    2.2532927127   -1.7458851978
N       -1.1787427141    0.8931580654    0.3030099641
N       -0.7726532135   -1.3022579955   -0.0512122881
N        0.8323949224    1.5969622106   -0.8519290130
N        1.8288888149   -2.6803349572   -0.0529481647
O        2.7696840134   -0.6783200452   -0.2522336787
H       -2.7771965419   -0.4705822911    0.1234111723
H        0.7638807011    1.0675011670    1.2029658551
H        2.7501060201   -3.1036688558   -0.1225564127
H        0.9913970786   -3.2483653572    0.0356631387
14   

C       -1.7056256374   -0.3041926602    0.1204195140
C        0.4025670370   -0.7196837734    0.0677136265
C        1.7671851627   -1.3332383370   -0.0468988937
C        0.2749303119    0.8107605644    0.2196947955
N        1.3111630774    2.1516879003   -1.8399228316
N       -1.1938671553    0.8975305440    0.2342298830
N       -0.7631504741   -1.3111635393    0.0172265208
N        0.8387430950    1.5463629369   -0.9184386903
N        1.8233543802   -2.6665452237   -0.1770542315
O        2.7855480285   -0.6647881592   -0.0503431168
H       -2.7773461413   -0.4892966482    0.1078178435
H        0.7263746187    1.1454959142    1.1629525755
H        2.7434780717   -3.0913052568   -0.2519771465
H        0.9787542964   -3.2310623935   -0.1715172600
