24   
Generated by ForceBalance from scan.xyz: Frame 1 of 11
C       -0.8446920392    2.6401872666    5.8291581072
C        0.4489280700    2.3870855218    5.2606920539
C       -1.4360752191    3.1037615906    3.7241277365
C       -0.7029834923    1.9635066441    3.3800862310
C        0.0918019382    0.2802559810    1.7135179629
C        0.1662877285   -0.4925125905    0.5751926391
C       -0.9015363490    1.2709077107    2.0603118026
C       -0.8579880823    0.9985361706   -1.1131117754
C       -0.4060675694   -1.3863183991   -1.6162018310
N       -1.8571230961    3.0243762298    5.0145923950
N        0.5372187441    2.0393589546    3.9567014937
N       -0.3605448798   -0.2944766445   -0.6522884839
O       -1.9423617525    1.5348670086    1.4303021414
H       -1.0534052372    2.5223275099    6.8889642165
H        1.3682733576    2.4736826813    5.8336718600
H       -2.0745536173    3.6191841691    3.0059776875
H        0.7985041266    0.0307552063    2.4985270917
H        0.7723654498   -1.3966081242    0.6366855836
H       -0.6752260525    1.0679378664   -2.1903193518
H       -0.3115766553    1.7954621114   -0.6069903770
H       -1.9209347407    1.1334800416   -0.9022068798
H       -1.4436997971   -1.6606579802   -1.8432571241
H        0.0966837706   -2.2663877941   -1.2103470755
H        0.0867914469   -1.0960586921   -2.5515051867
24   
Generated by ForceBalance from scan.xyz: Frame 2 of 11
C       -0.7914680304    2.7500642877    5.8421536995
C        0.4474175289    2.3543962000    5.2691659875
C       -1.5126775269    3.0438565952    3.7245165070
C       -0.7212415646    1.9438409980    3.3717844123
C        0.0872358233    0.2588994927    1.7059321682
C        0.1702503064   -0.5044772719    0.5620222173
C       -0.9117288219    1.2444583065    2.0507818223
C       -0.8378983697    1.0007905599   -1.1231857286
C       -0.3810423657   -1.3798119827   -1.6421565288
N       -1.8057378609    3.1258079405    5.0416194277
N        0.4868465654    1.9300011250    3.9958530033
N       -0.3441516696   -0.2958027144   -0.6692449924
O       -1.9493740092    1.5012833142    1.4131975691
H       -0.9564921054    2.7670049527    6.9166991398
H        1.3791538135    2.3730201241    5.8295829676
H       -2.2061205982    3.4954259886    3.0175756651
H        0.7879276617    0.0043173752    2.4941026904
H        0.7761429375   -1.4089228826    0.6209676138
H       -0.6519953092    1.0770138023   -2.1993320563
H       -0.2910587220    1.7933587652   -0.6102076091
H       -1.9010212281    1.1367483287   -0.9137438327
H       -1.4164688249   -1.6538737353   -1.8795795158
H        0.1197276404   -2.2624625179   -1.2393822026
H        0.1188060151   -1.0816864088   -2.5712748795
24   
Generated by ForceBalance from scan.xyz: Frame 3 of 11
C       -0.7406096174    2.8614149926    5.8366834910
C        0.4392882113    2.3246663217    5.2820402342
C       -1.5807522426    2.9756816057    3.7345494013
C       -0.7313628050    1.9189047543    3.3731610398
C        0.0882181399    0.2318829484    1.7066337670
C        0.1785663071   -0.5192181534    0.5551791491
C       -0.9166846174    1.2109520783    2.0522901408
C       -0.8160899854    1.0063307679   -1.1188066989
C       -0.3550528110   -1.3679108449   -1.6638043185
N       -1.7645132740    3.2171434780    5.0446717471
N        0.4422930106    1.8313258338    4.0369661297
N       -0.3255908445   -0.2955985421   -0.6778338844
O       -1.9530995105    1.4596087416    1.4097798901
H       -0.8521052587    3.0189126943    6.9072449853
H        1.3682544025    2.2760804170    5.8462981555
H       -2.3187320568    3.3613840628    3.0357153817
H        0.7828942465   -0.0299535137    2.4972413980
H        0.7837668805   -1.4245309900    0.6079443826
H       -0.6299734761    1.0934275605   -2.1940090913
H       -0.2670171525    1.7922774396   -0.5975144786
H       -1.8787771830    1.1430520121   -0.9072811474
H       -1.3885430487   -1.6411272478   -1.9105128749
H        0.1451007197   -2.2543399843   -1.2685758552
H        0.1497017073   -1.0579453907   -2.5863507142
24   
Generated by ForceBalance from scan.xyz: Frame 4 of 11
C       -0.6857910607    2.9623734180    5.8177214810
C        0.4292766958    2.2875712945    5.2976937132
C       -1.6380054422    2.9022024635    3.7569435898
C       -0.7411815943    1.8878470598    3.3822731397
C        0.0842299551    0.2050242575    1.7098702135
C        0.1828532335   -0.5322597947    0.5500546308
C       -0.9242457260    1.1793743721    2.0581317786
C       -0.8002682492    1.0140491849   -1.1112235396
C       -0.3318370064   -1.3523112414   -1.6840254152
N       -1.7234117048    3.2944179464    5.0361712330
N        0.3995493946    1.7341204745    4.0804311621
N       -0.3109654929   -0.2927503950   -0.6841592958
O       -1.9590217208    1.4255050725    1.4121576464
H       -0.7349608699    3.2525246173    6.8654103630
H        1.3448213284    2.1769520656    5.8758416365
H       -2.4173299453    3.2237128982    3.0718199642
H        0.7722895764   -0.0663724803    2.5025529539
H        0.7877796456   -1.4381453913    0.5960471925
H       -0.6123247775    1.1135273963   -2.1849617151
H       -0.2517921323    1.7938934932   -0.5799218834
H       -1.8632203581    1.1487259167   -0.8994568210
H       -1.3630837611   -1.6245349241   -1.9410391116
H        0.1676940693   -2.2426770449   -1.2969174428
H        0.1783418514   -1.0294794305   -2.5991182524
24   
Generated by ForceBalance from scan.xyz: Frame 5 of 11
C       -0.6286317372    3.0589929412    5.7796202237
C        0.4147557984    2.2531821768    5.3093550491
C       -1.6934061412    2.8274599747    3.7860466526
C       -0.7577471839    1.8543079062    3.3936065341
C        0.0733311949    0.1753607063    1.7159034346
C        0.1844741397   -0.5460125334    0.5471152536
C       -0.9383945748    1.1453087245    2.0671215327
C       -0.7840541072    1.0234757481   -1.0994335660
C       -0.3052297381   -1.3332058985   -1.7047284335
N       -1.6853009011    3.3621517399    5.0131587011
N        0.3515080078    1.6432043469    4.1216088587
N       -0.2958230983   -0.2887472504   -0.6888580860
O       -1.9706380556    1.3910907555    1.4170985561
H       -0.6069061056    3.4752275830    6.7851557920
H        1.3100262367    2.0890782612    5.9067420119
H       -2.5148078148    3.0842211319    3.1238296705
H        0.7529831198   -0.1069983670    2.5116503955
H        0.7898189614   -1.4519317327    0.5864853292
H       -0.5919695926    1.1384263966   -2.1708022721
H       -0.2381225855    1.7961307954   -0.5548622356
H       -1.8478954398    1.1546040889   -0.8894830411
H       -1.3334491982   -1.6039582628   -1.9751046111
H        0.1930280795   -2.2281186237   -1.3265668227
H        0.2124041070   -0.9954978215   -2.6101878309
24   
Generated by ForceBalance from scan.xyz: Frame 6 of 11
C       -0.5736052669    3.1573205420    5.7253433167
C        0.3951268031    2.2340714892    5.3184806324
C       -1.7509012593    2.7589273621    3.8231537081
C       -0.7810780422    1.8300335094    3.4064873425
C        0.0525764708    0.1537440640    1.7258115860
C        0.1714126490   -0.5525185530    0.5484816204
C       -0.9597308856    1.1228319155    2.0779380164
C       -0.7781611392    1.0407886733   -1.0856567339
C       -0.3000175616   -1.3088739008   -1.7178917484
N       -1.6535116247    3.4262320477    4.9788153784
N        0.2979846858    1.5709127996    4.1621477064
N       -0.2968310906   -0.2778673819   -0.6883592731
O       -1.9871203581    1.3741513763    1.4223440972
H       -0.4771773110    3.6892180886    6.6702387039
H        1.2659563179    2.0276762770    5.9385874234
H       -2.6152812071    2.9512428466    3.1949404811
H        0.7226174671   -0.1418525942    2.5247065045
H        0.7733068187   -1.4609760714    0.5813138094
H       -0.5764449788    1.1696881470   -2.1536521589
H       -0.2353324892    1.8048068587   -0.5260031604
H       -1.8435667720    1.1716803026   -0.8831297896
H       -1.3265259067   -1.5728071527   -2.0011835173
H        0.1920219553   -2.2102025267   -1.3468986603
H        0.2269547282   -0.9610011962   -2.6140708788
24   
Generated by ForceBalance from scan.xyz: Frame 7 of 11
C       -0.5160931251    3.2364153476    5.6557678973
C        0.3765612366    2.2098878092    5.3260865516
C       -1.7993996752    2.6825648985    3.8650131645
C       -0.8010313225    1.8005879421    3.4156909953
C        0.0385692297    0.1293868934    1.7338771801
C        0.1716561710   -0.5619141753    0.5491451184
C       -0.9761481152    1.0959952173    2.0863370767
C       -0.7598285588    1.0532939354   -1.0715533730
C       -0.2731103347   -1.2872893743   -1.7333638202
N       -1.6187302017    3.4716871296    4.9312636760
N        0.2450806174    1.4981253287    4.2024075031
N       -0.2812385040   -0.2706631133   -0.6895746498
O       -1.9994632105    1.3525601716    1.4261530075
H       -0.3456253323    3.8710358550    6.5235417324
H        1.2178139270    1.9681750436    5.9735276525
H       -2.7050190163    2.8148820195    3.2807270050
H        0.6976147905   -0.1777531737    2.5375299660
H        0.7730954707   -1.4707947443    0.5773596665
H       -0.5525314331    1.1967554288   -2.1365249061
H       -0.2196412851    1.8094934036   -0.4986292787
H       -1.8262241441    1.1819247301   -0.8723066541
H       -1.2964516718   -1.5480103312   -2.0307659404
H        0.2159052373   -2.1933355919   -1.3699450542
H        0.2627075933   -0.9266517403   -2.6191605084
24   
Generated by ForceBalance from scan.xyz: Frame 8 of 11
C       -0.4886347127    3.3178927779    5.5731038669
C        0.3290252826    2.2008148103    5.3381958942
C       -1.8666044080    2.6131887936    3.9150826487
C       -0.8437992700    1.7804139950    3.4334099844
C       -0.0026961621    0.1083388517    1.7532482439
C        0.1430997110   -0.5671368347    0.5609112102
C       -1.0155867404    1.0775151764    2.1047283164
C       -0.7657935160    1.0732374365   -1.0473848858
C       -0.2725474702   -1.2582761816   -1.7370951689
N       -1.6123731561    3.5208867261    4.8689378916
N        0.1665923175    1.4356266569    4.2525929564
N       -0.2913609297   -0.2561050360   -0.6796080773
O       -2.0343974493    1.3420418950    1.4402845999
H       -0.2455120660    4.0427359318    6.3475697102
H        1.1346775374    1.9369024239    6.0207829046
H       -2.8076688448    2.6894266943    3.3783050795
H        0.6430261507   -0.2139268138    2.5619209458
H        0.7407741756   -1.4786066721    0.5842308235
H       -0.5628735520    1.2261821045   -2.1116719389
H       -0.2194416372    1.8216976911   -0.4695364819
H       -1.8305485204    1.2048883131   -0.8409949759
H       -1.2927015902   -1.5155751414   -2.0481716779
H        0.2136228916   -2.1688419889   -1.3811807996
H        0.2718998105   -0.8852689612   -2.6123601448
24   
Generated by ForceBalance from scan.xyz: Frame 9 of 11
C       -0.4091426963    3.3712998291    5.4810023352
C        0.3212670609    2.1709441657    5.3519083096
C       -1.8789850119    2.5455993914    3.9749913643
C       -0.8467104103    1.7534713714    3.4525616092
C       -0.0146358558    0.0857795758    1.7673535257
C        0.1376717784   -0.5750225404    0.5676180789
C       -1.0260948515    1.0539204969    2.1262350011
C       -0.7662973242    1.0857652998   -1.0210135616
C       -0.2641887862   -1.2350448244   -1.7421743315
N       -1.5493087887    3.5598812607    4.7945719493
N        0.1180804870    1.3539413500    4.3084748202
N       -0.2897186818   -0.2475276113   -0.6710711188
O       -2.0465352086    1.3258571381    1.4667777564
H       -0.0856985006    4.1662325718    6.1494821007
H        1.0834855630    1.8864860589    6.0742634108
H       -2.8521215279    2.5802254269    3.4924562314
H        0.6246744034   -0.2488234546    2.5764316300
H        0.7353046286   -1.4866239894    0.5826301583
H       -0.5706665512    1.2508376992   -2.0846953951
H       -0.2159506672    1.8278136437   -0.4383403336
H       -1.8295731731    1.2152009992   -0.8052923880
H       -1.2824056844   -1.4909571024   -2.0606612658
H        0.2233568538   -2.1489802721   -1.3969457867
H        0.2825557155   -0.8484968748   -2.6100483821
24   
Generated by ForceBalance from scan.xyz: Frame 10 of 11
C       -0.3594887325    3.4109294236    5.3872993604
C        0.2890554325    2.1463407425    5.3666356971
C       -1.9000825157    2.4817267115    4.0265699131
C       -0.8546694969    1.7479058158    3.4522345619
C       -0.0179922138    0.0893356558    1.7683630102
C        0.1448691518   -0.5662236605    0.5670754238
C       -1.0320464258    1.0547502888    2.1272181484
C       -0.7581126177    1.0995354590   -1.0164758953
C       -0.2430900547   -1.2151793135   -1.7482461243
N       -1.5066468565    3.5835991961    4.7049804258
N        0.0440729668    1.2888918122    4.3632345060
N       -0.2767787166   -0.2334877623   -0.6720453812
O       -2.0512815664    1.3337265716    1.4681459435
H        0.0348200741    4.2573613968    5.9443288192
H        0.9938857896    1.8422253771    6.1368532175
H       -2.9013283583    2.4734998930    3.6002130308
H        0.6134715517   -0.2503914114    2.5820039538
H        0.7450470417   -1.4761127668    0.5816788621
H       -0.5573264223    1.2722074435   -2.0779821180
H       -0.2151178590    1.8408300432   -0.4261783433
H       -1.8233432675    1.2221091191   -0.8060298914
H       -1.2590407947   -1.4721185705   -2.0730435102
H        0.2453265313   -2.1295617781   -1.4054782367
H        0.3067957210   -0.8223663368   -2.6112906040
24   
Generated by ForceBalance from scan.xyz: Frame 11 of 11
C       -0.2901612802    3.4195676349    5.2771380972
C        0.2613636424    2.0974259702    5.3857366584
C       -1.8935930965    2.4138700220    4.0887129092
C       -0.8509351107    1.7146808135    3.4730650906
C       -0.0245010062    0.0653918677    1.7822791005
C        0.1438360766   -0.5764215257    0.5741267655
C       -1.0396073915    1.0255127991    2.1512369898
C       -0.7678051771    1.1031326138   -0.9878048897
C       -0.2326578752   -1.1983199830   -1.7505034928
N       -1.4403065872    3.5978191399    4.5847997729
N       -0.0377990814    1.1815461675    4.4387088201
N       -0.2747717282   -0.2303466417   -0.6620702572
O       -2.0641463250    1.3098649012    1.5019408007
H        0.1869478887    4.2917568329    5.7159396138
H        0.9034794129    1.7963387513    6.2091956981
H       -2.9177241457    2.3696640412    3.7172475306
H        0.6037729809   -0.2838940994    2.5951452232
H        0.7475861653   -1.4839346590    0.5799637942
H       -0.5897483986    1.2842063256   -2.0516523925
H       -0.2153731340    1.8424766938   -0.4031503383
H       -1.8288311452    1.2200676495   -0.7536563335
H       -1.2463499661   -1.4597895878   -2.0786568293
H        0.2635969916   -2.1125687722   -1.4188745218
H        0.3141425552   -0.7899997124   -2.6081554842
