35

C      2.82385   -2.59440   -6.25335
C      1.68543   -2.58415   -7.05887
C      2.67954   -2.53451   -4.86388
C      0.40985   -2.52061   -6.48642
C      0.82058   -1.96763   -0.77419
C      0.54816   -1.61238   -2.07394
C      1.97468   -3.30575   -1.99357
C      1.41391   -2.48568   -4.27719
C      0.26040   -2.47631   -5.09437
C     -5.78111   -2.69516   -3.84748
C     -4.99664   -1.55378   -5.95926
C     -3.30949   -2.43615   -4.25205
C     -2.14141   -2.47603   -5.22681
C     -4.68171   -2.63915   -4.91777
N      1.70747   -3.02861   -0.73513
N      1.29661   -2.47604   -2.86202
O     -0.93770   -2.42942   -4.44837
H      3.81482   -2.63411   -6.69542
H      1.78007   -2.62132   -8.14072
H      3.55286   -2.51304   -4.21847
H     -0.46204   -2.51740   -7.12971
H      0.42944   -1.52393    0.13237
H     -0.08926   -0.85895   -2.50944
H      2.62058   -4.09677   -2.35248
H     -5.84707   -1.74345   -3.30641
H     -5.58400   -3.48362   -3.11309
H     -6.76027   -2.89072   -4.29782
H     -4.95939   -0.55609   -5.50441
H     -6.00099   -1.69227   -6.37374
H     -4.29336   -1.56514   -6.79835
H     -3.14723   -3.21722   -3.50091
H     -3.29466   -1.47772   -3.71783
H     -2.15991   -3.40105   -5.81939
H     -2.16166   -1.62352   -5.91575
H     -4.66553   -3.61018   -5.43340
