38

C      4.91730    0.63310    5.99562
C      4.76096    1.32543    4.79309
C      3.16353   -0.89870    5.33483
C      4.12439   -0.48157    6.28060
C      3.80758    0.91440    3.85620
C      2.99670   -0.21968    4.13101
C      4.32046   -1.18911    7.58085
C     -0.88441   -0.27213    3.42628
C     -0.56129   -0.67380    1.95679
C      0.03330   -1.14276    4.32180
C      0.44417   -1.84107    2.05878
C      1.16025   -1.61063    3.38900
C      3.75775   -3.03441    9.24804
C      4.37149    2.66054    2.33061
C      3.45332   -2.40733    7.88841
O      5.16082   -0.80249    8.38878
O      2.11286   -0.55552    3.14946
O      3.57852    1.52385    2.66134
H      5.65324    0.95052    6.72694
H      5.38566    2.18841    4.59251
H      2.54198   -1.75792    5.54691
H     -0.67522    0.78881    3.58534
H     -1.93791   -0.43071    3.67383
H     -1.45642   -0.95831    1.39634
H     -0.10030    0.16528    1.42972
H      0.40706   -0.60544    5.19657
H     -0.50101   -2.02826    4.68587
H     -0.07837   -2.80306    2.11291
H      1.14890   -1.88541    1.22454
H      1.68664   -2.50494    3.74201
H      4.79984   -3.35952    9.30466
H      3.59849   -2.31513   10.05558
H      3.11225   -3.90158    9.42129
H      4.02956    2.98250    1.34633
H      5.43645    2.40337    2.28043
H      4.22441    3.47385    3.05161
H      2.39960   -2.10440    7.83079
H      3.59361   -3.14201    7.08480
