49

C     -2.72111   -0.36180    4.13313
C     -0.55643   -0.95535    4.97589
C     -0.88331   -0.69118    2.59020
C     -1.90151   -0.65165    5.22392
C     -2.23525   -0.37639    2.81835
C     -0.03228   -0.98099    3.68156
C      0.17308   -2.05257    0.63738
C      0.74449    0.29341    0.81321
C      0.91600   -1.87025   -1.82112
C      1.87253    0.31004   -1.47211
C     -0.33978   -0.71945    1.18273
C      1.34152   -1.81010   -0.32198
C      1.80833   -0.35523   -0.08361
C      0.76097   -0.40832   -2.25276
C     -2.44745   -0.66807    6.63315
C     -3.00325    1.46226    1.23873
C      2.26927   -1.65067    4.67789
C     -0.89930    1.33550   -2.18916
C     -3.18347    0.00281    1.69729
C      1.43488   -1.29885    3.44274
O     -0.28936   -3.14711    0.88981
O      0.75663    1.46532    1.13722
O     -0.54529    0.00366   -1.83133
H     -3.76823   -0.11711    4.30313
H      0.08803   -1.17602    5.82136
H      1.70999   -2.33934   -2.40960
H     -0.00188   -2.44024   -1.98085
H      1.75741    1.39475   -1.41934
H      2.83713    0.10147   -1.94826
H     -1.13705   -0.47278    0.47378
H      2.10486   -2.56203   -0.10944
H      2.76345   -0.28121    0.44473
H      0.85275   -0.27445   -3.33989
H     -2.65280   -1.69406    6.96236
H     -1.73487   -0.23522    7.34275
H     -3.38254   -0.10517    6.70661
H     -3.21300    2.14975    2.06461
H     -3.68549    1.69943    0.41430
H     -1.97852    1.65942    0.91117
H      2.30277   -0.82372    5.39428
H      3.29943   -1.87213    4.38076
H      1.87527   -2.53254    5.19301
H     -1.95871    1.45081   -1.95141
H     -0.75004    1.50687   -3.26469
H     -0.32908    2.08026   -1.62070
H     -3.06914   -0.67439    0.84324
H     -4.21211   -0.13598    2.04568
H      1.50669   -2.13484    2.73722
H      1.90375   -0.43833    2.94933
