16   

C        0.5835448215    0.8867173986    1.7731411440
C        0.3344138045    0.9003592339    3.1258220055
C       -0.2610926165    0.1632401880    0.9623547347
C       -4.2782802705   -1.9971420979    4.4797653230
C       -4.3310057561   -2.6059140927    3.2688996434
C       -1.4934568340   -0.4679937987    2.7986909337
C       -2.6556103790   -1.2100371894    3.3143732217
N       -0.6923787974    0.2317454659    3.6338191311
N       -1.2902884055   -0.5056209028    1.4705701510
N       -3.2196027328   -1.1199490757    4.4892672797
O       -3.3168847001   -2.1251869955    2.5131225652
H        1.4201485289    1.4312944859    1.3593045036
H        0.9823812291    1.4630646326    3.7882192020
H       -0.0863632308    0.1381474187   -0.1071902494
H       -4.9602559861   -2.1724441414    5.3035630229
H       -5.0580083689   -3.3470748708    2.9599772717
16   

C        0.5779059230    0.8956119555    1.7741218778
C        0.3873182403    0.8315170151    3.1350261312
C       -0.3155537263    0.2382583331    0.9590635474
C       -4.3332610674   -1.9259306258    4.4425590992
C       -4.2549310670   -2.6873493425    3.3224164661
C       -1.4777479449   -0.4832503314    2.8063988359
C       -2.6427222414   -1.2214117697    3.3261236023
N       -0.6297802787    0.1510123701    3.6469992937
N       -1.3356500983   -0.4417875513    1.4708379040
N       -3.3131256816   -1.0040693353    4.4248001171
O       -3.1949412253   -2.2602496992    2.5977430108
H        1.4065665322    1.4499298743    1.3572445597
H        1.0740009005    1.3421220206    3.8006239277
H       -0.1878203081    0.2761374236   -0.1167331561
H       -5.0801241879   -2.0258703438    5.2214553923
H       -4.9244539022   -3.4953758760    3.0538563816
16   

C        0.5647533434    0.8994677561    1.7805779544
C        0.4332952041    0.7556055656    3.1426666800
C       -0.3807488836    0.3146821237    0.9684843360
C       -4.3980651404   -1.8609304921    4.3988789552
C       -4.1906139455   -2.7574823244    3.4013446014
C       -1.4752862876   -0.4932138506    2.8191821012
C       -2.6448301174   -1.2267187641    3.3449546727
N       -0.5769490185    0.0677432108    3.6588301216
N       -1.3944189507   -0.3722256736    1.4839204559
N       -3.4176458492   -0.8981300261    4.3419975164
O       -3.0873436997   -2.3761144249    2.7165153718
H        1.3877464039    1.4598654892    1.3605999462
H        1.1615481041    1.2087904180    3.8056449073
H       -0.3000988781    0.4168593019   -0.1076895071
H       -5.2073558929   -1.8956327098    5.1188274346
H       -4.8021488513   -3.6259067552    3.1888246814
16   

C        0.5594497927    0.9071234580    1.7764797544
C        0.4815900243    0.6760068009    3.1309777032
C       -0.4402849468    0.4096435972    0.9706473371
C       -4.4684714026   -1.7987432421    4.3146557026
C       -4.1283692487   -2.8073652787    3.4720682635
C       -1.4813653195   -0.4822925105    2.8107191904
C       -2.6595605159   -1.2108311084    3.3375966994
N       -0.5296392725   -0.0115818778    3.6461568104
N       -1.4549736009   -0.2768829486    1.4846615471
N       -3.5330299148   -0.7959078995    4.2082981269
O       -2.9854890838   -2.4569028310    2.8372484600
H        1.3830753718    1.4674260753    1.3576018520
H        1.2535253710    1.0593575166    3.7885691442
H       -0.4019151008    0.5814032590   -0.0989923908
H       -5.3383157170   -1.7842137697    4.9609143864
H       -4.6767786694   -3.7307156799    3.3307096840
16   

C        0.5685465366    0.9025182186    1.7832595809
C        0.5310202173    0.5741874500    3.1194856209
C       -0.4846074621    0.5138925850    0.9852736162
C       -4.5418032045   -1.7494389093    4.2169263443
C       -4.0634250011   -2.8438017981    3.5711144442
C       -1.4997784989   -0.4566916257    2.7973529361
C       -2.6907725131   -1.1803801207    3.3168223428
N       -0.4935915769   -0.1008979730    3.6252225556
N       -1.5121980661   -0.1604925895    1.4896705408
N       -3.6616811886   -0.7073330203    4.0382544482
O       -2.8887326141   -2.5072517506    2.9888768977
H        1.4028384000    1.4527662541    1.3722220792
H        1.3464285439    0.8692463881    3.7701149924
H       -0.4776324857    0.7619240902   -0.0699711733
H       -5.4679859167   -1.7039595310    4.7778324235
H       -4.5392126149   -3.8159592214    3.5279800027
16   

C        0.5729520433    0.8983394831    1.7921317231
C        0.5548589508    0.4512946278    3.0937144736
C       -0.5247831376    0.6455568406    0.9998023056
C       -4.6327490275   -1.7127985701    4.0830002165
C       -4.0183432425   -2.8520995054    3.6729587756
C       -1.5489509433   -0.4156586591    2.7548189642
C       -2.7533230178   -1.1393395868    3.2498830875
N       -0.4948978694   -0.2045101077    3.5727947787
N       -1.5764881397   -0.0104606281    1.4779384327
N       -3.8145575981   -0.6419060840    3.8064434467
O       -2.8208262829   -2.5140992650    3.1401752304
H        1.4273673057    1.4331903773    1.4026793737
H        1.4067684479    0.6348597110    3.7385581058
H       -0.5328125707    0.9856001013   -0.0294764725
H       -5.6083504462   -1.6570309618    4.5516095770
H       -4.4165943430   -3.8558935390    3.7573850540
16   

C        0.5783868101    0.9009015658    1.7988020228
C        0.5801115609    0.3316216659    3.0516532591
C       -0.5533992578    0.7716446840    1.0250994108
C       -4.6897628123   -1.7238191036    3.9343397861
C       -3.9616876497   -2.8581818263    3.7716742240
C       -1.5753462498   -0.4000753966    2.7110917457
C       -2.7829038375   -1.1348424342    3.1739509294
N       -0.4841018355   -0.3200402266    3.5038045680
N       -1.6187545650    0.1188600123    1.4763408526
N       -3.9230281567   -0.6454708796    3.5578152902
O       -2.7442656167   -2.5101267406    3.2933202340
H        1.4443061519    1.4328391837    1.4314012739
H        1.4598898545    0.4136857744    3.6797670878
H       -0.5769841588    1.2066758507    0.0324789471
H       -5.7073079966   -1.6761559348    4.3042439926
H       -4.2958793816   -3.8655516162    3.9881218036
16   

C        0.5786455176    0.9159195993    1.8043169897
C        0.6126176412    0.2448432522    3.0051493559
C       -0.5852053150    0.8795571577    1.0693281958
C       -4.7183731168   -1.7400824405    3.8169043257
C       -3.9175531309   -2.8336339197    3.8926167880
C       -1.5766016481   -0.3981200293    2.6974939077
C       -2.7800939182   -1.1407983584    3.1415150940
N       -0.4517720964   -0.4139527003    3.4464558831
N       -1.6504791918    0.2192979022    1.5091575262
N       -3.9783566284   -0.6785839134    3.3504301465
O       -2.6802837224   -2.4777218832    3.4748473739
H        1.4446756656    1.4540059631    1.4462563072
H        1.5183761978    0.2515317243    3.6008240063
H       -0.6344157907    1.3947368738    0.1168226477
H       -5.7677899964   -1.7080542728    4.0855860348
H       -4.2158269351   -3.8187150610    4.2302074003
16   

C        0.5722047684    0.9272021411    1.8048356539
C        0.6423302476    0.1711573107    2.9523854929
C       -0.6216422827    0.9643152548    1.1197524522
C       -4.7340787347   -1.7785872938    3.7101037181
C       -3.8925157452   -2.8014952199    4.0063470432
C       -1.5707774573   -0.4111713810    2.6943552372
C       -2.7686437239   -1.1575242146    3.1312680206
N       -0.4159631040   -0.4989099657    3.3914129346
N       -1.6808212062    0.2929535143    1.5568374322
N       -4.0049188901   -0.7459769222    3.1683711019
O       -2.6394718734   -2.4302566236    3.6541774573
H        1.4334342397    1.4743895455    1.4489971978
H        1.5720262833    0.1194082777    3.5075953641
H       -0.6999661837    1.5475962203    0.2093996338
H       -5.8047016442   -1.7748075126    3.8781378820
H       -4.1739595718   -3.7491762337    4.4490712244
16   

C        0.5623898761    0.9396725162    1.8048480328
C        0.6651202235    0.1107573345    2.8983089887
C       -0.6577865769    1.0409917790    1.1749139966
C       -4.7429296714   -1.8252722520    3.6139651515
C       -3.8859654908   -2.7515589340    4.1132733828
C       -1.5667023552   -0.4218526282    2.6951361807
C       -2.7608623401   -1.1667580728    3.1327682215
N       -0.3865799931   -0.5691090196    3.3381351771
N       -1.7105248848    0.3603973664    1.6127078023
N       -4.0153890222   -0.8292402137    3.0061071347
O       -2.6241825767   -2.3553183919    3.8256241201
H        1.4185333115    1.4943717869    1.4483720953
H        1.6155197941    0.0089554683    3.4098270546
H       -0.7626639800    1.6836890155    0.3082934313
H       -5.8235926736   -1.8629573725    3.6862304974
H       -4.1629707452   -3.6508607819    4.6497762667
16   

C        0.5524609336    0.9576367566    1.8121360105
C        0.6801963666    0.0637117287    2.8502736402
C       -0.6891505820    1.1199509677    1.2395788120
C       -4.7451386292   -1.8743398621    3.5345441016
C       -3.8935388443   -2.6793361700    4.2185704804
C       -1.5674453144   -0.4204457477    2.7012357553
C       -2.7603092496   -1.1609466298    3.1439190763
N       -0.3673392835   -0.6221929834    3.2906526595
N       -1.7378423245    0.4339711890    1.6783088960
N       -4.0140596502   -0.9205851970    2.8664543822
O       -2.6314766168   -2.2473334188    3.9899045963
H        1.4054929712    1.5165263258    1.4547500514
H        1.6472128704   -0.0851188791    3.3171828720
H       -0.8147176667    1.8163966647    0.4184310518
H       -5.8247749604   -1.9671935029    3.5192682724
H       -4.1743707980   -3.5208852937    4.8400503887
16   

C        0.5490480748    0.9715131327    1.8276903961
C        0.6933538928    0.0150052128    2.8061480658
C       -0.7084557780    1.1943943400    1.3131710431
C       -4.7365160567   -1.9344111544    3.4596920437
C       -3.9122961344   -2.5985521727    4.3085191787
C       -1.5672838730   -0.4194497466    2.7059281953
C       -2.7615353951   -1.1545346662    3.1522033422
N       -0.3528689688   -0.6752277142    3.2428789581
N       -1.7560094260    0.5048648835    1.7489051560
N       -3.9947168180   -1.0285273564    2.7389717164
O       -2.6571336083   -2.1235782312    4.1335106348
H        1.4012456604    1.5331044449    1.4725565295
H        1.6725742189   -0.1803401531    3.2283368115
H       -0.8478368941    1.9427734017    0.5414268324
H       -5.8045159808   -2.0925011049    3.3656120965
H       -4.2069768239   -3.3739430380    5.0051118038
16   

C        0.5479122179    0.9806636375    1.8429056384
C        0.7019420418   -0.0365315787    2.7565571786
C       -0.7207763393    1.2637303845    1.3889410764
C       -4.7180183696   -2.0062297384    3.3915151072
C       -3.9401892705   -2.5117241733    4.3817665890
C       -1.5694809895   -0.4189194107    2.7038512655
C       -2.7662633005   -1.1489628187    3.1532201611
N       -0.3452564956   -0.7293432728    3.1868212032
N       -1.7694755096    0.5722733125    1.8189647141
N       -3.9608223167   -1.1526407893    2.6243712614
O       -2.6995905541   -1.9866776845    4.2515384127
H        1.4010362289    1.5436370499    1.4922092562
H        1.6897253987   -0.2782864909    3.1322082991
H       -0.8682442135    2.0623484223    0.6709231934
H       -5.7641816932   -2.2390528366    3.2308751133
H       -4.2563942873   -3.2137208266    5.1436878271
16   

C        0.6387158629    0.8369741803    1.8288819993
C       -0.3408520500    1.4524231262    2.5738768628
C        0.4988961701   -0.5034772765    1.5467698672
C       -3.9498759043   -2.8844820256    3.8682407189
C       -4.6558336320   -1.7254723202    3.8644016202
C       -1.4726472766   -0.5480637769    2.7248364727
C       -2.6255460079   -1.3481765063    3.1755755822
N       -1.3906265689    0.7699853551    3.0143329793
N       -0.5514015026   -1.1873322576    1.9853474193
N       -2.6694849395   -2.6259683864    3.4385339312
O       -3.8381941842   -0.7365152725    3.4339634444
H        1.4941014703    1.3926920556    1.4721722356
H       -0.2577578873    2.5080855251    2.8061418003
H        1.2548620369   -1.0095855740    0.9573123353
H       -4.3321114731   -3.8541068244    4.1652239803
H       -5.6927026458   -1.6110326885    4.1561504336
16   

C        0.6291729362    0.8432607251    1.8202696952
C       -0.3059590611    1.4278142493    2.6432553098
C        0.4505616677   -0.4741911153    1.4618308926
C       -3.9277755091   -2.8648287983    3.9618678269
C       -4.6829185219   -1.7582319492    3.7437607569
C       -1.4661305941   -0.5597737231    2.7231230822
C       -2.6216733901   -1.3634341186    3.1721693703
N       -1.3491908441    0.7369966420    3.0861790249
N       -0.5936414797   -1.1661988809    1.9027220242
N       -2.6276872697   -2.5930315791    3.6050361616
O       -3.8768674823   -0.7902234877    3.2485592929
H        1.4795731833    1.4054516444    1.4617836194
H       -0.1928010775    2.4655923960    2.9356332926
H        1.1701821663   -0.9549649486    0.8090696269
H       -4.2897584224   -3.8065712796    4.3575600489
H       -5.7451358147   -1.6650457188    3.9343522664
16   

C        0.6220763708    0.8579932124    1.8182982119
C       -0.2565899280    1.4045823678    2.7253166878
C        0.3958364682   -0.4293606384    1.3851527033
C       -3.9083680211   -2.8208371922    4.0776313287
C       -4.6917239515   -1.8007176915    3.6433394793
C       -1.4537984945   -0.5619593934    2.7370103695
C       -2.6089975001   -1.3690837869    3.1965672664
N       -1.2909361396    0.7056949979    3.1762870096
N       -0.6398043041   -1.1291633807    1.8345128499
N       -2.5951895841   -2.5240685446    3.7956881570
O       -3.8899165072   -0.8637890821    3.0853875079
H        1.4653475101    1.4264507687    1.4529182024
H       -0.1058021557    2.4185787646    3.0779437814
H        1.0701323797   -0.8795019036    0.6655719254
H       -4.2603460067   -3.7193635993    4.5708384706
H       -5.7700304566   -1.7450524216    3.7298035161
16   

C        0.6093350903    0.8596089986    1.8087419625
C       -0.1966314261    1.3679779837    2.8015647165
C        0.3156119612   -0.3878195190    1.3048459428
C       -3.9107446581   -2.7631952841    4.1851314732
C       -4.7009443570   -1.8718358638    3.5336748720
C       -1.4582469152   -0.5563153344    2.7487684390
C       -2.6115783175   -1.3634286152    3.2290920036
N       -1.2267379708    0.6708098355    3.2646962866
N       -0.7156806128   -1.0860516851    1.7670537892
N       -2.5938726319   -2.4188595949    3.9857099661
O       -3.8989715873   -0.9694822540    2.9215645672
H        1.4489631963    1.4266251203    1.4328769082
H        0.0086943679    2.3499187427    3.2125452974
H        0.9325531157   -0.8073998295    0.5184365615
H       -4.2610795557   -3.6057386107    4.7698410575
H       -5.7838350033   -1.8802687841    3.5090922763
16   

C        0.6067742366    0.8532073961    1.8029935371
C       -0.1030404058    1.3290791152    2.8818829629
C        0.2133471549   -0.3392848818    1.2374106586
C       -3.9162742660   -2.6687273474    4.3136654471
C       -4.6906459471   -1.9550875410    3.4565179672
C       -1.4743504222   -0.5152003559    2.7788121827
C       -2.6236319271   -1.3123750311    3.2916249820
N       -1.1385604123    0.6542798337    3.3655471921
N       -0.8227560545   -1.0161177907    1.7205709239
N       -2.6128503108   -2.2452491045    4.1933172265
O       -3.8919227959   -1.0850119429    2.7953378305
H        1.4504944777    1.4023274291    1.4100973932
H        0.1839280469    2.2664054841    3.3448490579
H        0.7553465082   -0.7331079507    0.3852083540
H       -4.2682950866   -3.4449529228    4.9830368634
H       -5.7603838325   -2.0629643356    3.3247695718
16   

C        0.6081075477    0.8434549497    1.7979186452
C       -0.0053373605    1.2833466191    2.9489459476
C        0.1045672422   -0.2780778662    1.1770013796
C       -3.9503917876   -2.5419560834    4.4111850862
C       -4.6734973804   -2.0361354388    3.3792868417
C       -1.5082699164   -0.4512970737    2.7972532127
C       -2.6578079717   -1.2296652904    3.3307606956
N       -1.0561102946    0.6433779965    3.4465809639
N       -0.9461702170   -0.9213656854    1.6742781813
N       -2.6771100467   -2.0238054795    4.3582639729
O       -3.8734954090   -1.2008626979    2.6760906154
H        1.4640643189    1.3646362242    1.3936001493
H        0.3718078236    2.1628256039    3.4584039114
H        0.5716731211   -0.6438156295    0.2697209163
H       -4.3160834396   -3.2427492960    5.1525740126
H       -5.7091203670   -2.2624738265    3.1566201418
16   

C        0.6142542454    0.8340044477    1.7941234283
C        0.0741183790    1.2196841100    2.9997958842
C        0.0274408337   -0.2144174945    1.1212317371
C       -3.9971911470   -2.4275139078    4.4664014078
C       -4.6381387240   -2.1271970026    3.3079810207
C       -1.5277878163   -0.4203437647    2.7957815768
C       -2.6806488808   -1.1826799398    3.3308197095
N       -0.9870689665    0.5987545662    3.4988952992
N       -1.0335638144   -0.8391441317    1.6203392914
N       -2.7588060165   -1.8288773053    4.4575632802
O       -3.8218473659   -1.3409966329    2.5680130459
H        1.4786629694    1.3398899158    1.3883719371
H        0.5186063202    2.0399326202    3.5519655317
H        0.4369495974   -0.5378535628    0.1710767953
H       -4.3946217558   -3.0432868194    5.2647516735
H       -5.6290512773   -2.4601467396    3.0241714152
16   

C        0.6078834242    0.8419262963    1.7944653591
C        0.1303772879    1.1598032647    3.0451478262
C       -0.0417054830   -0.1376946223    1.0776511655
C       -4.0519235971   -2.3227079398    4.5103472272
C       -4.5952368415   -2.2175906335    3.2711231143
C       -1.5379093742   -0.4096308674    2.7990505095
C       -2.6924606036   -1.1631347926    3.3296527631
N       -0.9309778865    0.5401462099    3.5448711047
N       -1.1030646304   -0.7609637122    1.5777469089
N       -2.8478532445   -1.6583059102    4.5254558056
O       -3.7513330354   -1.4901771178    2.5027924034
H        1.4724294878    1.3468739655    1.3878541307
H        0.6249023163    1.9248515677    3.6328680036
H        0.3178244850   -0.4076309251    0.0912600821
H       -4.4927929243   -2.8489554430    5.3489050114
H       -5.5387789123   -2.6430480153    2.9517247986
16   

C        0.6098004248    0.8530572416    1.7843852383
C        0.1882301546    1.0971476989    3.0709272884
C       -0.0903070164   -0.0622735697    1.0315751381
C       -4.1019687234   -2.2345198319    4.5170225203
C       -4.5324265266   -2.3171037320    3.2330834330
C       -1.5265763238   -0.4181013507    2.7906759977
C       -2.6826881491   -1.1680852169    3.3132557480
N       -0.8674802643    0.4681608009    3.5704704347
N       -1.1464673258   -0.6942013396    1.5317398107
N       -2.9323388767   -1.5121183562    4.5473881972
O       -3.6505638513   -1.6523444172    2.4510620852
H        1.4697637774    1.3656096705    1.3775849550
H        0.7225461544    1.8110455285    3.6874719204
H        0.2240854631   -0.2734417150    0.0158711565
H       -4.5972438436   -2.6701324342    5.3769155984
H       -5.4253420902   -2.8270743089    2.8926072261
16   

C        0.6035176137    0.8600695609    1.7795723144
C        0.2377710617    1.0293027129    3.0947101310
C       -0.1437652447    0.0066993104    1.0001277699
C       -4.1593251508   -2.1558555280    4.5180614286
C       -4.4684413627   -2.4225433337    3.2246535989
C       -1.5155532864   -0.4385121097    2.7915777259
C       -2.6734916508   -1.1861795937    3.3086164109
N       -0.8090203323    0.3873716932    3.5962685485
N       -1.1915707643   -0.6373323437    1.5023516696
N       -3.0253022578   -1.3791905543    4.5518199329
O       -3.5440668150   -1.8220737558    2.4399835902
H        1.4562234628    1.3831628761    1.3709198313
H        0.8091451014    1.6942010131    3.7324492203
H        0.1253666511   -0.1443476722   -0.0390253990
H       -4.7144759414   -2.5003711925    5.3826890288
H       -5.3080881274   -3.0134108797    2.8794667179
16   

C        0.5898082222    0.8762614368    1.7727203941
C        0.2840121208    0.9680418102    3.1105954846
C       -0.2076047239    0.0878748440    0.9748307241
C       -4.2211154574   -2.0703376347    4.5082959186
C       -4.4054236123   -2.5124789692    3.2395693211
C       -1.5081915876   -0.4497870830    2.7943051359
C       -2.6678672084   -1.1944533766    3.3104140411
N       -0.7525630969    0.3131525365    3.6165125419
N       -1.2458837770   -0.5681688463    1.4812459901
N       -3.1237759062   -1.2424826400    4.5340625255
O       -3.4373308197   -1.9737801356    2.4629310151
H        1.4342989043    1.4097739540    1.3604946402
H        0.8948017120    1.5817907453    3.7629128587
H        0.0129490757   -0.0005467651   -0.0828191803
H       -4.8379544911   -2.3277225764    5.3613639016
H       -5.1902336732   -3.1801750890    2.9055973207
