29   

C        1.1738015971   -1.0437561917    0.1871716550
C        1.5359052926   -2.1914545145    0.8948208577
C        1.0123847040    0.1668112154    0.8650447373
C        1.7281368720   -2.1279566363    2.2791451398
C        1.1999807986    0.2265142822    2.2513291213
C        1.9415239493   -0.1053962332    6.4289869330
C        2.8857287954   -1.1618833720    6.1909691403
C        1.5456118301   -0.9251839014    2.9872830827
C        1.2015942392    0.0118984549    5.2870464126
C       -0.0428085619    0.8342774760    5.2069153462
C       -2.2482703636    1.4707212061    4.3055074028
C       -1.4021916758   -0.8423137065    3.9394122048
N        2.7133038019   -1.6383388618    4.9856103311
N        1.7321341875   -0.8968843487    4.3879068174
N       -1.1474890488    0.5180972630    4.4047997276
O       -0.1681579353    1.7764317741    5.9949470229
H        1.0273475917   -1.0912796593   -0.8863070941
H        1.6710623472   -3.1326206331    0.3731836661
H        0.7473795111    1.0634712875    0.3157427663
H        2.0128654080   -3.0249904933    2.8186597948
H        1.0893290598    1.1820927545    2.7500001511
H        1.7922310810    0.4341818168    7.3572902085
H        3.6072783716   -1.5312389302    6.9105422196
H       -2.8542071226    1.2626377305    3.4179468668
H       -1.8641888139    2.4917921636    4.2092375613
H       -2.8834728791    1.4112512107    5.1949127198
H       -2.4547213216   -1.0995984945    4.0951939612
H       -0.8154007693   -1.5753294652    4.5010818699
H       -1.1801740272   -0.9364124730    2.8722580034
29   

C        1.1639866239   -1.0078346810    0.1712673124
C        1.5425436088   -2.1529966317    0.8740799343
C        0.9909151970    0.1983480249    0.8535052814
C        1.7384930732   -2.0916302763    2.2580443088
C        1.1828012804    0.2561174243    2.2391229362
C        1.8416969420   -0.1679926730    6.4564577206
C        2.7892018119   -1.2226347181    6.2199639530
C        1.5438132849   -0.8935917105    2.9715875695
C        1.1649125257    0.0005662406    5.2839304068
C       -0.0354678080    0.8745839356    5.1241344206
C       -2.2578915686    1.4498272157    4.2110807046
C       -1.4207515520   -0.8931923764    4.0188496487
N        2.6758323459   -1.6442962429    4.9867748874
N        1.7287160745   -0.8712500517    4.3734629259
N       -1.1704754430    0.4951084957    4.3962074693
O       -0.0809562703    1.9386467130    5.7490483772
H        1.0139861548   -1.0535425117   -0.9017873355
H        1.6868849863   -3.0908224329    0.3489504089
H        0.7139408670    1.0938412240    0.3081774481
H        2.0343010002   -2.9879852657    2.7926193607
H        1.0657756696    1.2113841059    2.7366683343
H        1.6596800047    0.3469632481    7.3925874109
H        3.4731327998   -1.6273167916    6.9570640873
H       -2.8671444264    1.1700255903    3.3457695260
H       -1.8621600123    2.4532203025    4.0216981359
H       -2.8931952055    1.4788098399    5.1017897218
H       -2.4748434432   -1.1407932500    4.1794835631
H       -0.8382402670   -1.5872906388    4.6323942023
H       -1.1841981977   -1.0556949951    2.9629145822
29   

C        1.1454431672   -0.9761210325    0.1833823844
C        1.5224080819   -2.1164323048    0.8945861603
C        0.9905048614    0.2385352621    0.8541929958
C        1.7331736170   -2.0420079399    2.2758453578
C        1.1983873216    0.3098603432    2.2366674614
C        1.7945944980   -0.1589248968    6.4883247917
C        2.7296210516   -1.2268681395    6.2587584366
C        1.5558637995   -0.8350627405    2.9794751571
C        1.1735022961    0.0527941478    5.2934849039
C        0.0269390464    0.9823926843    5.0549213552
C       -2.2091441075    1.5286155110    4.1406342638
C       -1.4300987184   -0.8459916976    4.1711289718
N        2.6591086500   -1.6104707823    5.0094344072
N        1.7509629454   -0.8029417044    4.3808963546
N       -1.1522384180    0.5645866912    4.4265124201
O        0.0913661450    2.1411820182    5.4759504359
H        0.9830745283   -1.0318228765   -0.8873773321
H        1.6534502133   -3.0608879556    0.3779917899
H        0.7158684352    1.1308776768    0.3025048534
H        2.0261557748   -2.9359860225    2.8158124457
H        1.0991479319    1.2745748945    2.7194871007
H        1.5942835713    0.3434679205    7.4272317329
H        3.3767936641   -1.6650708458    7.0097519227
H       -2.7899246967    1.2059854606    3.2706697008
H       -1.7891938199    2.5116087505    3.9032560758
H       -2.8774364437    1.6249831284    5.0018001650
H       -2.4922329796   -1.0552360841    4.3331426467
H       -0.8722301760   -1.4944350698    4.8540022508
H       -1.1773395627   -1.1069021287    3.1387840797
29   

C        1.1773526754   -0.9942942005    0.1561696481
C        1.5429849354   -2.1489304113    0.8496071543
C        1.0553291393    0.2152889541    0.8422262046
C        1.7733617130   -2.0939958511    2.2287112370
C        1.2841484385    0.2675970026    2.2221295640
C        1.8059107475   -0.3615453948    6.4940667800
C        2.7305583607   -1.4334320967    6.2402615486
C        1.6279839466   -0.8922589012    2.9491130819
C        1.2447127771   -0.0707515946    5.2871170736
C        0.1549721515    0.9173344362    5.0037230148
C       -2.0968722906    1.4841386962    4.1208895004
C       -1.3954537013   -0.9088289239    4.3140243468
N        2.7071022353   -1.7418463547    4.9681272918
N        1.8384089579   -0.8837426295    4.3497872294
N       -1.0736187749    0.5060232778    4.4753833995
O        0.3357994361    2.1149169581    5.2399922055
H        0.9987993710   -1.0348097596   -0.9126713693
H        1.6494773345   -3.0897155402    0.3208800422
H        0.7906643274    1.1191351898    0.3045538960
H        2.0559364135   -3.0001461617    2.7535991126
H        1.2142874192    1.2314790277    2.7116432276
H        1.5833632883    0.0972911071    7.4498458476
H        3.3394678664   -1.9260131291    6.9895506337
H       -2.6218819923    1.1653023552    3.2148626082
H       -1.6587064173    2.4649313077    3.9100998116
H       -2.8192794979    1.5880832652    4.9361468339
H       -2.4677622049   -1.0714182524    4.4617116443
H       -0.8750567344   -1.5242337702    5.0548104326
H       -1.1250603707   -1.2500865784    3.3097937976
29   

C        1.2177367041   -1.0011317270    0.1140958523
C        1.5974252997   -2.1461557793    0.8153717124
C        1.0792993686    0.2107650974    0.7924939955
C        1.8245852130   -2.0794249300    2.1944771461
C        1.3056454592    0.2749856463    2.1723243234
C        1.7024781335   -0.4469569780    6.4753045779
C        2.6633832599   -1.4867139947    6.2237892976
C        1.6627170425   -0.8753121345    2.9084398939
C        1.2135677790   -0.1039027503    5.2510641705
C        0.1515225683    0.9037023445    4.9194406818
C       -2.1452828179    1.4453109116    4.1288729237
C       -1.4526350364   -0.9386718507    4.4723542291
N        2.7232416055   -1.7279130889    4.9383495351
N        1.8712832429   -0.8589279695    4.3103314219
N       -1.1158439660    0.4813462421    4.5071902739
O        0.4045305853    2.1100874189    4.9669861610
H        1.0413670285   -1.0505442118   -0.9547016601
H        1.7172183462   -3.0887788195    0.2928616596
H        0.8045088685    1.1081155731    0.2490801137
H        2.1176590932   -2.9794623469    2.7239538108
H        1.2265092990    1.2431484230    2.6510598070
H        1.4211470081   -0.0358468798    7.4371021101
H        3.2392755959   -2.0045058491    6.9821248498
H       -2.2404996354    1.4803031618    3.0391144823
H       -1.9135776503    2.4523835030    4.4892892279
H       -3.1088232444    1.1612843595    4.5631574976
H       -2.5330803942   -1.0797590965    4.5749310413
H       -0.9785291040   -1.4790548536    5.2979515811
H       -1.1322446814   -1.3804963361    3.5233031523
29   

C        1.3473668995   -1.0828312703    0.0207577048
C        1.7223800634   -2.2035511839    0.7620872236
C        1.1815802494    0.1452648160    0.6622796145
C        1.9182895138   -2.0958203954    2.1434525866
C        1.3766008465    0.2500081428    2.0444603159
C        1.6085323438   -0.4672251892    6.3885369837
C        2.6124553417   -1.4722319603    6.1708092119
C        1.7299595852   -0.8738941550    2.8211887093
C        1.1899171973   -0.1014393362    5.1446022832
C        0.1405804474    0.9081074520    4.7721946150
C       -2.2073607228    1.4634937339    4.1826749750
C       -1.5483184584   -0.9059516374    4.6865584079
N        2.7575843354   -1.6752468607    4.8860214300
N        1.9169162870   -0.8176668693    4.2259872598
N       -1.1767328484    0.4991911084    4.5546433856
O        0.4462165882    2.0917545157    4.6070035900
H        1.1962137064   -1.1631678139   -1.0499883221
H        1.8634976452   -3.1589304317    0.2689971237
H        0.9112509581    1.0249449736    0.0885993170
H        2.2091930865   -2.9784145558    2.7024551837
H        1.2816901108    1.2315119376    2.4889272521
H        1.2624791445   -0.0862716000    7.3414874418
H        3.1579792296   -1.9928267759    6.9494031320
H       -2.3400351931    1.4695505260    3.0963460540
H       -1.9469910358    2.4748376003    4.5108999899
H       -3.1592570839    1.2063317280    4.6575452634
H       -2.6219782905   -1.0048926735    4.8739507796
H       -1.0305741216   -1.3761496506    5.5284000940
H       -1.3029692924   -1.4476526015    3.7672401970
29   

C        1.5948161606   -1.1314729301   -0.1230981122
C        1.8735504369   -2.2567301458    0.6527251468
C        1.4355523397    0.1094476047    0.4945074812
C        1.9794958942   -2.1395030250    2.0432450948
C        1.5419743951    0.2229436330    1.8856834935
C        1.4482164181   -0.5482371671    6.2533905101
C        2.4848017579   -1.5268513608    6.0811827890
C        1.7957350839   -0.9027403205    2.6957434229
C        1.1108955451   -0.1518180714    4.9932783361
C        0.0592284850    0.8472490384    4.6035484399
C       -2.3206962766    1.4850215578    4.3323237739
C       -1.7126089755   -0.8469895512    5.0213125377
N        2.7197690329   -1.6929172501    4.8052962300
N        1.9070760131   -0.8366558515    4.1082084460
N       -1.2934605360    0.5069790696    4.6734760420
O        0.3782588206    1.9764862922    4.2209970149
H        1.5143977655   -1.2180634693   -1.2009386718
H        2.0108974144   -3.2225215755    0.1793868104
H        1.2415899684    0.9929393336   -0.1036659855
H        2.1990734438   -3.0253512497    2.6288406696
H        1.4663710550    1.2131135149    2.3101584381
H        1.0288808869   -0.2022650298    7.1900449608
H        2.9878587368   -2.0563847609    6.8820205203
H       -2.5416355182    1.4426216405    3.2613679949
H       -2.0001757266    2.4997116581    4.5902304179
H       -3.2378869820    1.2828194399    4.8944480741
H       -1.8834203030   -0.9271083302    6.0992192872
H       -0.9664580158   -1.5893486344    4.7209310819
H       -2.6386595760   -1.1012803837    4.4960563965
29   

C        1.7710705113   -1.1429998785   -0.2347712400
C        1.9396201733   -2.2804665174    0.5552395796
C        1.6577026933    0.1082080397    0.3729691237
C        1.9791358104   -2.1641421394    1.9492577328
C        1.7010364338    0.2203713097    1.7678374967
C        1.3234309977   -0.6495100280    6.1307660398
C        2.4133677408   -1.5713624815    5.9822803274
C        1.8379707017   -0.9158394805    2.5891424111
C        1.0225179113   -0.2308855503    4.8669839108
C       -0.0455616581    0.7431753639    4.4728855156
C       -2.4142865402    1.4718420403    4.4738134221
C       -1.8022953655   -0.8110812002    5.3053048808
N        2.7158384751   -1.6863614533    4.7158637779
N        1.8956230142   -0.8500845275    4.0033158437
N       -1.3848908514    0.4829276069    4.7757868810
O        0.2399787320    1.8000665705    3.9018810902
H        1.7417864278   -1.2286385642   -1.3152446291
H        2.0440337690   -3.2544823194    0.0904896539
H        1.5500191629    0.9998360682   -0.2346678766
H        2.1165437614   -3.0571635409    2.5487670062
H        1.6733351081    1.2136471096    2.1921055552
H        0.8504716754   -0.3485284770    7.0573053555
H        2.9045811021   -2.0993330959    6.7914539168
H       -2.7677844723    1.3481491137    3.4455819916
H       -2.0295906010    2.4893509020    4.5990752015
H       -3.2607498095    1.3595788093    5.1586630634
H       -1.8027742759   -0.7931927772    6.3994455116
H       -1.1447004782   -1.6146835084    4.9584639999
H       -2.8104566570   -1.0547303841    4.9552489453
29   

C        1.8731583129   -1.2133407801   -0.2512365497
C        3.0025391480   -1.5391280181    0.5010849001
C        0.6760456763   -0.9051307725    0.3969893146
C        2.9329947313   -1.5526147489    1.8988133564
C        0.6108677689   -0.9133026281    1.7954343439
C        1.1145160577   -1.0142530977    6.1068891682
C        2.1167917043   -2.0365431726    5.9715911805
C        1.7430939390   -1.2255921929    2.5779368407
C        0.9058705891   -0.5408580848    4.8435311090
C        0.1120838850    0.6510356256    4.4087066115
C       -1.9426677595    2.0344070609    4.4717492124
C       -1.9304437305   -0.2417433561    5.5190705192
N        2.4655810918   -2.1453627014    4.7157322863
N        1.7121578722   -1.2573757605    3.9944477526
N       -1.2155015908    0.8163335188    4.8138250397
O        0.6328949512    1.5145926555    3.7006846186
H        1.9250610306   -1.2017473069   -1.3341172596
H        3.9357379876   -1.7797220906    0.0044629848
H       -0.2062516729   -0.6602151767   -0.1834115188
H        3.8187187187   -1.8058753311    2.4707982187
H       -0.3401861442   -0.6906478032    2.2603070262
H        0.6845362617   -0.6508909374    7.0317461738
H        2.5390342973   -2.6127509026    6.7867649872
H       -2.4247754947    1.9266475224    3.4953567426
H       -1.2705036988    2.8984524836    4.4438765909
H       -2.7068438140    2.2445142851    5.2267873269
H       -1.8032461814   -0.1326921802    6.6005448644
H       -1.5776913083   -1.2315081150    5.2115901586
H       -2.9987733290   -0.1980359678    5.2841943126
29   

C        1.9625985446   -1.2952045492   -0.2717907079
C        3.0938312699   -1.5121620746    0.5166101814
C        0.7251292801   -1.0803203713    0.3380628187
C        2.9853026435   -1.5110134108    1.9118742116
C        0.6213066031   -1.0724707793    1.7343191976
C        0.9848439233   -1.0989628428    6.0518276904
C        2.0297948288   -2.0807445217    5.9480143891
C        1.7530074153   -1.2752032348    2.5510862775
C        0.8075588372   -0.6158368565    4.7854583254
C        0.0318693726    0.5782836466    4.3326258500
C       -1.9025482178    2.1152548989    4.4972217673
C       -1.9508730273   -0.0780678065    5.6998448957
N        2.4397279219   -2.1547568462    4.7091358251
N        1.6818332730   -1.2894420980    3.9657088271
N       -1.2270731259    0.8752029490    4.8662679665
O        0.4936794417    1.3300982378    3.4714707121
H        2.0447106211   -1.2947148777   -1.3528167581
H        4.0581235104   -1.6790433709    0.0501290536
H       -0.1575601066   -0.9186580850   -0.2700608098
H        3.8710954920   -1.6796177060    2.5140709191
H       -0.3537531725   -0.9177411043    2.1777041083
H        0.5195864162   -0.7582256410    6.9677517172
H        2.4391000572   -2.6510549126    6.7738666012
H       -2.4619842874    1.9802414655    3.5665118700
H       -1.1811043669    2.9285579798    4.3654611867
H       -2.5936194983    2.4217513207    5.2888615193
H       -1.7256814455    0.0905088380    6.7573854715
H       -1.6975900558   -1.1091405089    5.4329821980
H       -3.0297089502    0.0316631252    5.5496791847
29   

C        2.1890650661   -1.5700311685   -0.1653533312
C        3.2987903101   -1.6409980531    0.6786743365
C        0.9093025523   -1.4550554699    0.3818647689
C        3.1261933707   -1.5938979952    2.0666137708
C        0.7412516845   -1.4006550833    1.7709570065
C        0.8900222515   -1.2538170140    6.0908098637
C        1.9788723625   -2.1904656584    6.0529184843
C        1.8486458357   -1.4547998461    2.6412547835
C        0.7604808170   -0.7808675991    4.8125864785
C        0.0067297344    0.4053014798    4.3073603893
C       -1.7969060258    2.0912101492    4.4691783216
C       -1.9123927174    0.0253104052    5.8676750379
N        2.4656735035   -2.2461846867    4.8425198443
N        1.7132889139   -1.4207112316    4.0503966737
N       -1.1764694627    0.8467098089    4.9137755888
O        0.3959766508    1.0184575997    3.3103786921
H        2.3207292180   -1.6046776075   -1.2408722113
H        4.2953178862   -1.7298389565    0.2611699128
H        0.0440132769   -1.4056214849   -0.2690937807
H        3.9941008677   -1.6498457528    2.7140687394
H       -0.2607656815   -1.3198473094    2.1728919771
H        0.3783291501   -0.9270101062    6.9859770241
H        2.3643213073   -2.7394202924    6.9043294521
H       -2.3982833283    1.9162143664    3.5717922408
H       -1.0351624520    2.8462536228    4.2476368691
H       -2.4390233714    2.4999687944    5.2558317152
H       -1.6017272052    0.2554112047    6.8913926795
H       -1.7635990854   -1.0405893382    5.6674897278
H       -2.9870285209    0.2148276314    5.7794322702
29   

C        2.7419985989   -0.9867866100   -0.0930292118
C        2.7254291023    0.0359135982    0.8584118943
C        2.2625768740   -2.2540474155    0.2441830945
C        2.2196625153   -0.2065608888    2.1415817284
C        1.7648248434   -2.4939118598    1.5298782010
C        0.5218073340   -1.5769927066    5.8752535359
C        1.2578775976   -2.7951005026    5.6852869205
C        1.7141869740   -1.4726295668    2.4967054841
C        0.5018802141   -0.9512793892    4.6548423656
C       -0.3477061885    0.1682939285    4.1472933270
C       -1.9737914262    2.0110195974    4.4251579169
C       -0.7311525330    1.1695913593    6.4148524331
N        1.6251682115   -2.8929867777    4.4376799011
N        1.2167671990   -1.7581934030    3.7907118083
N       -1.0411830310    1.0429963588    4.9967763124
O       -0.4298266536    0.3979882272    2.9376911475
H        3.1260304871   -0.7981560630   -1.0890944414
H        3.1013348723    1.0200141631    0.6034164098
H        2.2728269224   -3.0527948769   -0.4887098162
H        2.2175961122    0.5960224175    2.8687004509
H        1.3964195499   -3.4810286648    1.7854779093
H        0.0057070663   -1.3155487704    6.7878386473
H        1.4448319140   -3.5410703781    6.4491003570
H       -2.6847498129    2.3528625585    5.1840341016
H       -2.5559653314    1.5551612001    3.6172472146
H       -1.4298157407    2.8747876836    4.0304844103
H        0.3327966725    0.9904130723    6.5998122391
H       -1.3372859407    0.4745027379    7.0038828189
H       -0.9408962761    2.1873339739    6.7595382209
29   

C        2.7496410299   -0.9420550673   -0.0462775897
C        2.5591275556    0.0893377170    0.8758576233
C        2.4208050470   -2.2528474309    0.3038474250
C        2.0308062662   -0.1890549876    2.1423933928
C        1.8999860307   -2.5281893414    1.5732384008
C        0.3566061563   -1.6775038203    5.8404372211
C        1.1441377059   -2.8686290386    5.6810700442
C        1.6772405814   -1.5026361645    2.5115238530
C        0.3790611164   -1.0498206716    4.6238956977
C       -0.4803542886    0.0571704468    4.1083579227
C       -1.9463824460    2.0251564381    4.4215299007
C       -0.5030824087    1.2515620811    6.3073393524
N        1.5795307128   -2.9437374418    4.4523056940
N        1.1583423117   -1.8218538512    3.7898414179
N       -0.9987765311    1.0489509171    4.9510606665
O       -0.7360489795    0.1454218243    2.9048340872
H        3.1517418193   -0.7263813972   -1.0296794825
H        2.8185071840    1.1079026373    0.6109550977
H        2.5655343363   -3.0585993818   -0.4068467716
H        1.8999986322    0.6252272027    2.8437764952
H        1.6478189358   -3.5494354606    1.8360298011
H       -0.2177943840   -1.4220758049    6.7206458576
H        1.3200064058   -3.6121518446    6.4498792835
H       -2.5406608520    2.4591850389    5.2318855424
H       -2.6453500826    1.5481498861    3.7262979842
H       -1.4142414486    2.8265581646    3.8998242944
H        0.5470309957    0.9541507045    6.3919844952
H       -1.1058189873    0.6856612880    7.0242284260
H       -0.5518398305    2.3125021461    6.5729896643
29   

C        2.7491801114   -0.8180105376    0.0333096346
C        2.4327644965    0.2010205613    0.9337901351
C        2.5432438282   -2.1500749134    0.3959844772
C        1.9018640799   -0.1115311587    2.1910929401
C        2.0192826515   -2.4594044937    1.6562768896
C        0.2473669471   -1.7243523163    5.8556546277
C        1.0925618098   -2.8790174760    5.7176989186
C        1.6719757957   -1.4493248049    2.5738068411
C        0.3014002958   -1.0834634010    4.6494969952
C       -0.5526318550    0.0291167103    4.1342942633
C       -1.8487494153    2.1143846127    4.4559520861
C       -0.2842394738    1.3338380963    6.2454127243
N        1.5938585275   -2.9132632914    4.5110847050
N        1.1515583578   -1.8024286367    3.8430418466
N       -0.9114761144    1.1095108869    4.9478317520
O       -0.9594893640    0.0132212175    2.9705622574
H        3.1540706825   -0.5762106701   -0.9428853108
H        2.5977869665    1.2366968259    0.6595007826
H        2.7859832418   -2.9465993541   -0.2982339655
H        1.6802751281    0.6992502534    2.8728529980
H        1.8626831644   -3.4977215648    1.9265925669
H       -0.3713710120   -1.4862778041    6.7112078869
H        1.2647065139   -3.6256792006    6.4843011512
H       -2.3693507995    2.5904309346    5.2929508154
H       -2.6127733403    1.6570063537    3.8184808120
H       -1.3176553168    2.8804139075    3.8827569064
H        0.7422018518    0.9534589002    6.2597982043
H       -0.8630507535    0.8508189083    7.0386272118
H       -0.2271035704    2.4064168287    6.4570441974
29   

C        2.7665650355   -0.7653656107    0.1282680630
C        2.3336824279    0.2277532049    1.0083980358
C        2.6853185114   -2.1065397419    0.5054926777
C        1.8114542815   -0.1201625965    2.2598800423
C        2.1687096630   -2.4512379397    1.7596687592
C        0.2126223437   -1.8669301601    5.8991503111
C        1.1247995544   -2.9717616418    5.7758219903
C        1.7060838678   -1.4700043875    2.6580579845
C        0.2767980633   -1.2081992148    4.7051343263
C       -0.5889520402   -0.0975406828    4.1991355012
C       -1.7206685295    2.0869172063    4.5040441838
C       -0.0286057512    1.3067575976    6.1780387823
N        1.6770020928   -2.9543445267    4.5902986047
N        1.1959826240   -1.8599714072    3.9214251208
N       -0.7895537843    1.0590558267    4.9583417857
O       -1.1541739580   -0.2030682764    3.1093466093
H        3.1659539678   -0.4962328486   -0.8430782623
H        2.4032095499    1.2713974076    0.7233238148
H        3.0197024411   -2.8833089875   -0.1728849680
H        1.5070399266    0.6787426166    2.9226732807
H        2.1098149701   -3.4973196226    2.0390588506
H       -0.4407749716   -1.6603640077    6.7374076226
H        1.3097489497   -3.7204763108    6.5374226724
H       -2.1662418045    2.5997127053    5.3623461418
H       -2.5427244608    1.6484481839    3.9286948812
H       -1.2010011310    2.8198345858    3.8794545971
H        0.9707151271    0.8635246990    6.1189822453
H       -0.5548729230    0.8970916566    7.0457207657
H        0.1092712079    2.3826528169    6.3258198437
29   

C        2.6904608198   -0.6341039601    0.1097607286
C        1.3187410813   -0.4488756796    0.2881107734
C        3.4369769033   -1.2612484970    1.1076426986
C        0.6971220760   -0.8791760679    1.4664795624
C        2.8121511961   -1.6869333444    2.2852546895
C       -0.0709540885   -1.9974265584    5.7200396980
C        0.7400053520   -3.1610250838    5.5003049165
C        1.4337535932   -1.4858820080    2.5025907941
C        0.0332006179   -1.2568449377    4.5782598119
C       -0.6284140867    0.0574184245    4.2958157052
C       -1.0906898523    2.4177259491    4.8943769275
C        0.6621861677    1.1277848318    6.1353653371
N        1.2855271701   -3.0930344659    4.3144253762
N        0.8466647000   -1.9444739466    3.7077947572
N       -0.3787543861    1.1631277826    5.1134359142
O       -1.4220966647    0.1793742016    3.3577346148
H        3.1704572250   -0.3044564192   -0.8048719206
H        0.7271224010    0.0165215210   -0.4924095582
H        4.5003024634   -1.4229233047    0.9705202786
H       -0.3758950570   -0.7728338910    1.5350982239
H        3.4054430480   -2.1778217971    3.0486758528
H       -0.6482314439   -1.7675729773    6.6069866341
H        0.8872926728   -3.9674159449    6.2094210828
H       -1.1674489637    2.9787035532    5.8311445277
H       -2.1113422074    2.2338400496    4.5430369272
H       -0.5633469372    3.0278645847    4.1546781556
H        1.4736026300    0.4484940005    5.8549090577
H        0.2433644365    0.8112989445    7.0955090585
H        1.1082652324    2.1203552950    6.2541404335
29   

C        2.6614873860   -0.4987764786    0.2657488588
C        1.3000355133   -0.2753770155    0.4736093926
C        3.3928397715   -1.2224479322    1.2076717942
C        0.6739509262   -0.7632410824    1.6266806836
C        2.7635880103   -1.7088941041    2.3591653372
C       -0.2096332744   -2.1291894727    5.7537504825
C        0.6673386154   -3.2475556683    5.5487185620
C        1.3953436199   -1.4738326391    2.6077231229
C       -0.0835061521   -1.3596964462    4.6353602116
C       -0.7724555528   -0.0572251584    4.3434924891
C       -1.0516373555    2.3744137629    4.7352012082
C        0.8004512741    1.1206403301    5.8672584942
N        1.2690387541   -3.1236111815    4.3940509406
N        0.8049128516   -1.9821670550    3.7929969639
N       -0.3627083228    1.1131795764    4.9858568366
O       -1.7060948214   -0.0077137179    3.5378058060
H        3.1451436564   -0.1223792501   -0.6287386402
H        0.7195501884    0.2663704293   -0.2649982046
H        4.4485482272   -1.4109692943    1.0476580604
H       -0.3918692091   -0.6126470020    1.7142099683
H        3.3486297931   -2.2712196307    3.0784571254
H       -0.8370318011   -1.9437735401    6.6167984153
H        0.8183860228   -4.0633161901    6.2462370821
H       -0.9871883146    3.0226942387    5.6147936459
H       -2.1148091382    2.2092009861    4.5321661615
H       -0.6010911656    2.8872919963    3.8799079941
H        1.5343165383    0.3642617500    5.5715430508
H        0.4947665892    0.9377116317    6.9019500951
H        1.3076312497    2.0891632108    5.8137814542
29   

C        2.5649649617   -0.2870959015    0.4779908728
C        1.2080083213   -0.0651019982    0.7158830043
C        3.2970425870   -1.0886792839    1.3541886610
C        0.5871138927   -0.6317843248    1.8351525513
C        2.6736256951   -1.6552448529    2.4715658609
C       -0.3609926002   -2.2752672095    5.8150074221
C        0.5589968884   -3.3561599188    5.5901251634
C        1.3111647460   -1.4241489539    2.7513056412
C       -0.2064912526   -1.4432217280    4.7471847257
C       -0.9112521340   -0.1459593094    4.4653310482
C       -1.0007177563    2.3324166779    4.5857533524
C        0.9521770203    1.0815896519    5.5482595016
N        1.2044207954   -3.1559691319    4.4692786607
N        0.7277699842   -1.9998659459    3.9088703224
N       -0.3346140039    1.0629934290    4.8598610119
O       -1.9747776908   -0.1378004425    3.8403775780
H        3.0452074942    0.1521391580   -0.3893249743
H        0.6281584223    0.5392559593    0.0270049961
H        4.3493678683   -1.2745090337    1.1701227934
H       -0.4758474180   -0.4692988660    1.9516606851
H        3.2597400562   -2.2750169971    3.1412146705
H       -1.0317450546   -2.1537149932    6.6566195981
H        0.7067529769   -4.2019226699    6.2516962585
H       -0.8324015894    3.0369299000    5.4061576500
H       -2.0835131594    2.2028777151    4.4899110569
H       -0.6141510045    2.7656599572    3.6580583710
H        1.0362753061    0.2507487800    6.2556829584
H        1.0687921773    2.0055479779    6.1230016089
H        1.7683663627    1.0170368112    4.8213198997
29   

C        2.5195985628   -0.1958261855    0.6064908000
C        1.1574750283   -0.0134998265    0.8502644952
C        3.2745035187   -0.9948477131    1.4659694143
C        0.5539096896   -0.6169236217    1.9597065675
C        2.6688450805   -1.5982497347    2.5737088017
C       -0.4553876345   -2.4056594734    5.8291629471
C        0.5165750500   -3.4436716255    5.6159179666
C        1.3023399504   -1.4062033494    2.8594314898
C       -0.2625598471   -1.5171608891    4.8148237542
C       -0.9730050314   -0.2187900299    4.5643216072
C       -0.9752138668    2.2685885120    4.5005108142
C        1.0298383662    1.0241973863    5.3458854279
N        1.2242381787   -3.1702203216    4.5488982363
N        0.7359187914   -2.0097754997    4.0101018349
N       -0.3191464290    0.9963555293    4.7885694588
O       -2.1226996172   -0.2166835826    4.1173351724
H        2.9868735343    0.2725808125   -0.2526511470
H        0.5615329364    0.5896267784    0.1741427743
H        4.3309709348   -1.1495131696    1.2766092589
H       -0.5129384356   -0.4820522800    2.0877668376
H        3.2709929360   -2.2149417962    3.2320476467
H       -1.1769480606   -2.3414725379    6.6344229215
H        0.6551584621   -4.3121195163    6.2495002576
H       -0.7831365250    2.9854958983    5.3047698694
H       -2.0610998416    2.1579096725    4.4202919741
H       -0.5969987971    2.6781038048    3.5586493371
H        1.1705371088    0.2274858892    6.0833616544
H        1.2140854445    1.9730398088    5.8592339509
H        1.7712002845    0.9101197402    4.5484307207
29   

C        2.4917749135   -0.1854009136    0.6537704494
C        1.1289494479   -0.0171054978    0.9048603107
C        3.2608242992   -0.9736850995    1.5110196631
C        0.5387651091   -0.6240151967    2.0195778832
C        2.6683944397   -1.5812465735    2.6236245920
C       -0.5426940729   -2.4975445180    5.7931312211
C        0.4583804225   -3.5110949968    5.5960000087
C        1.3019017918   -1.4029745921    2.9155871989
C       -0.3044776188   -1.5586529115    4.8350289968
C       -1.0105165632   -0.2511427580    4.6457890308
C       -0.9971325828    2.2271531064    4.4741510737
C        1.0716784049    1.0114085161    5.1794967866
N        1.2253676423   -3.1807629276    4.5877332669
N        0.7459152466   -2.0083626394    4.0691247716
N       -0.3217286450    0.9626136499    4.7464907239
O       -2.2195759183   -0.2362045782    4.3993686219
H        2.9490292997    0.2858882744   -0.2092178989
H        0.5230635950    0.5783609736    0.2307707808
H        4.3179120568   -1.1168275412    1.3159644673
H       -0.5280945875   -0.4986826150    2.1598033221
H        3.2796628230   -2.1901781594    3.2809073033
H       -1.3067717166   -2.4739085867    6.5607245113
H        0.5748104865   -4.4026294024    6.2013532239
H       -1.3368371610    2.6834616677    5.4088710252
H       -1.8601006638    2.0874711607    3.8152510082
H       -0.3134876658    2.9151939338    3.9667957496
H        1.3118989636    0.1788167575    5.8483678046
H        1.2615038712    1.9334392038    5.7379921058
H        1.7418391666    0.9821596352    4.3145833446
29   

C        0.8286055694   -1.7965464546    0.3697070955
C        0.0698005334   -2.2706498495    1.4415470711
C        1.8927833088   -0.9250703108    0.6069282649
C        0.3657796092   -1.8627641799    2.7475266115
C        2.1891197717   -0.5216036411    1.9135372875
C        1.6508367139   -0.1069095589    6.4780725891
C        2.9989109545   -0.0065747027    5.9880243977
C        1.4212344326   -0.9636219453    3.0081636419
C        0.8812775643   -0.3899416200    5.3891353612
C       -0.6118978269   -0.4657965447    5.3659277588
C       -2.8276908778    0.0781912096    4.4022758828
C       -0.7956789295    1.2890370536    3.5954453150
N        3.0132260819   -0.2201852270    4.6968321124
N        1.7330983056   -0.5135367663    4.3132439591
N       -1.3797432544    0.2515896964    4.4408684448
O       -1.1962928435   -1.1337085402    6.2242191178
H        0.5985855273   -2.1113923876   -0.6422008478
H       -0.7461242045   -2.9624885068    1.2635525840
H        2.4918210411   -0.5604890527   -0.2202795903
H       -0.2240988986   -2.2741583458    3.5577430789
H        3.0192610702    0.1556251463    2.0833198476
H        1.3115691705    0.0528982007    7.4946459502
H        3.8679033411    0.2334980688    6.5897412764
H       -3.3101720873    0.7601220857    5.1091571499
H       -3.1058750008   -0.9508068803    4.6528048573
H       -3.2058626103    0.2797150861    3.3949950932
H       -0.5722256273    0.8930390295    2.5999699527
H        0.1200074359    1.6964812599    4.0353088389
H       -1.4944823316    2.1248299779    3.4892382874
29   

C        0.8403663584   -1.7953352226    0.3554878720
C        0.0542738540   -2.2391000670    1.4210599378
C        1.9131816504   -0.9355267192    0.5972062807
C        0.3323153048   -1.8125371899    2.7252344389
C        2.1920743227   -0.5145812347    1.9020084861
C        1.6007829485   -0.1433321118    6.4680497283
C        2.9573667666   -0.0759669014    5.9978797093
C        1.3975567879   -0.9268741005    2.9888000217
C        0.8285750224   -0.3507885334    5.3626327906
C       -0.6643652449   -0.3104450103    5.3607007548
C       -2.8701325178    0.2228951854    4.3842245742
C       -0.8168536763    1.2629575139    3.4198537926
N        2.9788970067   -0.2352977189    4.6996002281
N        1.6935603540   -0.4650112989    4.2922380453
N       -1.4145293908    0.3163551104    4.3574741843
O       -1.2704062996   -0.7547579636    6.3405667141
H        0.6245373111   -2.1241652703   -0.6551182776
H       -0.7691378161   -2.9209321087    1.2391304849
H        2.5326985518   -0.5940138024   -0.2247944217
H       -0.2794390362   -2.1936383058    3.5341250091
H        3.0296047472    0.1522060098    2.0771251877
H        1.2554244622    0.0017607762    7.4850681431
H        3.8270614205    0.1074646868    6.6182265360
H       -3.2842322322    0.9504201421    5.0892376402
H       -3.1865819235   -0.7825408873    4.6812627088
H       -3.2824812022    0.4145922776    3.3885035704
H       -0.6564187175    0.7927049142    2.4449241045
H        0.1338356681    1.6538925689    3.7951956528
H       -1.4787968601    2.1241218003    3.2840366155
29   

C        0.8726283298   -1.7710373075    0.3557200738
C        0.0923884200   -2.2267332931    1.4209077216
C        1.9336767865   -0.8966857016    0.5981149431
C        0.3648964276   -1.7978740116    2.7256659303
C        2.2073140061   -0.4740090746    1.9034004068
C        1.6356229451   -0.2560843955    6.4841736366
C        2.9905055415   -0.1842898959    6.0114587031
C        1.4187020419   -0.8992276509    2.9891082041
C        0.8486586548   -0.3790486702    5.3747629033
C       -0.6385502552   -0.2458099821    5.4150934510
C       -2.8663192700    0.2412516518    4.4763527242
C       -0.8441364003    1.1833183196    3.3703795522
N        3.0021899288   -0.2591626476    4.7061178207
N        1.7112774910   -0.4421551600    4.2940416128
N       -1.4114405804    0.2891166257    4.3757616603
O       -1.2151247553   -0.4913273187    6.4788148774
H        0.6614808711   -2.1015537350   -0.6553381892
H       -0.7220531908   -2.9189164540    1.2378124561
H        2.5485330997   -0.5458367469   -0.2234854137
H       -0.2419757448   -2.1827811748    3.5365857545
H        3.0364307137    0.2026613028    2.0808891105
H        1.2999121202   -0.1510696431    7.5095747557
H        3.8661714044   -0.0536714888    6.6367509802
H       -3.2268928796    1.0286478776    5.1457320350
H       -3.1921944647   -0.7308831496    4.8612222989
H       -3.3217313717    0.3734838767    3.4897757289
H       -0.7366487485    0.6705487898    2.4099219683
H        0.1268047667    1.5772515973    3.6853254788
H       -1.4999320238    2.0479259157    3.2266171619
29   

C        0.9088741854   -1.7442703401    0.3592034037
C        0.1299116629   -2.2120202699    1.4203909079
C        1.9546550034   -0.8528708333    0.6067870931
C        0.3887240844   -1.7784377524    2.7265104516
C        2.2147018018   -0.4257320993    1.9133769435
C        1.6306078761   -0.3523168865    6.4976250552
C        2.9881990588   -0.2891257286    6.0329247433
C        1.4270085495   -0.8636005147    2.9942621081
C        0.8396798440   -0.3864030081    5.3829921666
C       -0.6360253400   -0.1487654662    5.4518281987
C       -2.8833221522    0.2752870897    4.5415520383
C       -0.8961513716    1.1201745132    3.3141922275
N        3.0022413335   -0.2829450608    4.7260998611
N        1.7089684218   -0.4093213094    4.3016038114
N       -1.4326267796    0.2812621527    4.3819732496
O       -1.1724074236   -0.1844767379    6.5623258979
H        0.7087874373   -2.0785450629   -0.6528766506
H       -0.6726983547   -2.9167157106    1.2329193881
H        2.5686927820   -0.4930037225   -0.2115398853
H       -0.2164615510   -2.1685154326    3.5364137690
H        3.0330245051    0.2624025269    2.0969560993
H        1.2980840955   -0.2809951346    7.5271184589
H        3.8645998162   -0.2171783924    6.6666311846
H       -3.2028017445    1.1298806851    5.1464872380
H       -3.2101052825   -0.6485465020    5.0305922903
H       -3.3752678694    0.3234428429    3.5649017877
H       -0.8295749326    0.5626990195    2.3754019610
H        0.0878135401    1.5211597764    3.5745562757
H       -1.5504563132    1.9828246086    3.1527526965
