29   

C        2.3220055671   -3.3713149482    0.4960852946
C        3.1980987248   -2.5967792628    1.2589488877
C        0.9445130229   -3.2466180957    0.6856201451
C        2.6974110174   -1.7147395468    2.2231506994
C        0.4430493359   -2.3633992830    1.6479496255
C       -0.1733525610   -3.4794188118    5.7544474014
C        0.4098267898   -4.7286297817    5.9782420626
C       -1.1143452837   -4.3114961051    3.6965887470
C        1.3108384069   -1.6114618286    2.4591259217
C       -0.9290594425   -3.2543781293    4.5998915575
C        0.2457898699   -5.7761639488    5.0634964296
C       -0.5294551642   -5.5650994060    3.9089483966
C        0.8672672910   -0.6482524085    3.4698439638
C       -0.3002261262   -0.4753195610    4.1185626354
O       -2.5075404071   -1.6521667918    3.0642600365
O       -2.4798283524   -1.2135977933    5.4586748146
S       -1.6897840959   -1.6260974567    4.2885713898
Cl       1.0007452717   -7.3234805685    5.3776843849
Cl      -0.7754728221   -6.8391750909    2.7340689422
H        2.7082426692   -4.0565237087   -0.2504014221
H        4.2678107998   -2.6790983356    1.1025215066
H        0.2596681001   -3.8253166990    0.0757718215
H        3.3994856619   -1.1232242153    2.8001524951
H       -0.6285402835   -2.2556241070    1.7179122408
H       -0.0402290759   -2.6824330319    6.4809629039
H        0.9977699262   -4.8947432988    6.8730818902
H       -1.7230547680   -4.1644227879    2.8087578179
H        1.6254188519    0.0750435069    3.7524030428
H       -0.4374730024    0.4185002669    4.7082047010
29   

C        2.1688333315   -3.5528021370    0.6819305601
C        3.0575576676   -2.9056573545    1.5439573098
C        0.8156316121   -3.2072304224    0.6939560555
C        2.5900918421   -1.9283867277    2.4300300133
C        0.3474808689   -2.2302774672    1.5793945661
C       -0.1068631962   -3.4261886004    5.7115848544
C        0.5518715189   -4.6442525577    5.8954185647
C       -0.9823586625   -4.2416655263    3.6188196452
C        1.2209392305   -1.6029353583    2.4840970223
C       -0.8670830263   -3.2074250502    4.5590221731
C        0.4602321846   -5.6659163981    4.9417846386
C       -0.3208073050   -5.4626066126    3.7899867481
C        0.7885850688   -0.5637590292    3.4267177528
C       -0.3743241938   -0.4020685206    4.0822573255
O       -2.5500289479   -1.6655017673    3.0763061981
O       -2.4862160053   -1.2413412514    5.4753901243
S       -1.7081010517   -1.6124485895    4.2834369630
Cl       1.3133227038   -7.1713989477    5.2033750994
Cl      -0.4757988024   -6.7037429463    2.5653384119
H        2.5293681131   -4.3123776233   -0.0029067915
H        4.1108037429   -3.1622392895    1.5259736351
H        0.1270523240   -3.6895666206    0.0090931475
H        3.2962029495   -1.4382127552    3.0909537859
H       -0.6971972724   -1.9509659000    1.5312089449
H       -0.0263125246   -2.6474947407    6.4651501834
H        1.1447265705   -4.8053470743    6.7878490744
H       -1.5898947526   -4.0980195232    2.7297019759
H        1.5488906206    0.1716661119    3.6695132102
H       -0.5408722706    0.5036687289    4.6453590260
29   

C        1.9549153947   -3.7091533026    0.8288065620
C        2.8092316010   -3.2514095151    1.8358159809
C        0.7022453732   -3.1143994713    0.6569592342
C        2.4073416923   -2.2072085649    2.6767166036
C        0.2978316774   -2.0742023722    1.5007862414
C       -0.0856473087   -3.3881520655    5.6851015523
C        0.6451915497   -4.5678995701    5.8469834460
C       -0.8671305729   -4.1929769728    3.5515172381
C        1.1372304989   -1.6222771799    2.5329554373
C       -0.8332814714   -3.1812851990    4.5220954284
C        0.6382108904   -5.5628834920    4.8611528706
C       -0.1337059095   -5.3750246238    3.7008703113
C        0.7369044206   -0.5324933946    3.4406843584
C       -0.4296955076   -0.3681635046    4.0831935455
O       -2.5434758821   -1.6832933915    3.0238451515
O       -2.5425214991   -1.2830478577    5.4335257568
S       -1.7324341054   -1.6162324408    4.2515436099
Cl       1.5875503154   -7.0148695998    5.0914769455
Cl      -0.1829482986   -6.5838056383    2.4356081648
H        2.2646896653   -4.5200690583    0.1788855311
H        3.7838602239   -3.7080944530    1.9659817014
H        0.0419930515   -3.4571519376   -0.1319871988
H        3.0802971446   -1.8656320397    3.4551401486
H       -0.6704227821   -1.6121852757    1.3394568946
H       -0.0650279539   -2.6267637735    6.4600264565
H        1.2317335451   -4.7180891330    6.7454450172
H       -1.4588042498   -4.0561596173    2.6507196246
H        1.5147252671    0.1854051143    3.6802542162
H       -0.6160020081    0.5356412561    4.6429332707
29   

C        1.8470418778   -3.7480605363    0.8906259604
C        2.6266530918   -3.3936796253    1.9956228410
C        0.6928448152   -3.0187487690    0.5912302520
C        2.2526323354   -2.3112453346    2.8003170364
C        0.3159875925   -1.9403979917    1.3991221610
C       -0.0781119455   -3.3634553316    5.6551666162
C        0.6730537551   -4.5294368660    5.8248937549
C       -0.8015841729   -4.1711232174    3.5019636751
C        1.0907881315   -1.5767877120    2.5123706319
C       -0.8077015894   -3.1650509319    4.4790626288
C        0.7022439420   -5.5202299215    4.8352926182
C       -0.0519668313   -5.3419451903    3.6619462684
C        0.6919943487   -0.4564548508    3.3922654672
C       -0.4509102876   -0.3416796510    4.0807140972
O       -2.5003456407   -1.6861461081    2.9417224144
O       -2.5850125930   -1.3127551483    5.3565304014
S       -1.7321618790   -1.6162470351    4.1967307634
Cl       1.6751378835   -6.9547828962    5.0765516165
Cl      -0.0588450678   -6.5489692677    2.3939207706
H        2.1348778567   -4.5885851214    0.2688345100
H        3.5194964056   -3.9617507904    2.2311860628
H        0.0853140147   -3.2896637947   -0.2651292317
H        2.8615254300   -2.0518907158    3.6590002182
H       -0.5844391424   -1.3837695196    1.1580029944
H       -0.0863136096   -2.6056910909    6.4338277540
H        1.2466137981   -4.6725047942    6.7329059206
H       -1.3746216479   -4.0381146733    2.5885950324
H        1.4530047089    0.2933531065    3.5829797997
H       -0.6456099786    0.5391060357    4.6731927799
29   

C        2.0812650075   -3.2008716398    0.8074135290
C        2.3630968191   -3.9910361517    1.9260918234
C        1.8244527189   -1.8357500997    0.9664060187
C        2.3931614368   -3.4154900668    3.2016116832
C        1.8527153593   -1.2614939291    2.2420047707
C       -0.8249578535   -3.9144596408    4.9266813845
C       -0.9392732403   -5.1886794375    4.3642040863
C       -1.0269839452   -2.9506483130    2.7257598485
C        2.1472752585   -2.0436623913    3.3688127183
C       -0.8487993846   -2.7819921225    4.1067158395
C       -1.0925264702   -5.3570377232    2.9821487842
C       -1.1463481246   -4.2223035336    2.1533358265
C        2.1380856025   -1.4559277123    4.7318931350
C        1.0608777457   -1.0821932333    5.4302754968
O       -0.8100274484   -0.0828868538    3.7617218095
O       -1.5529480543   -0.9114616591    5.9397599041
S       -0.6372767099   -1.1084612046    4.8050390243
Cl      -1.2112234571   -6.9708494305    2.3155806312
Cl      -1.3458948933   -4.3719226766    0.4204427208
H        2.0531298133   -3.6474434240   -0.1803915578
H        2.5505573066   -5.0519629192    1.8050240672
H        1.5965037056   -1.2211931888    0.1026047870
H        2.6000166665   -4.0396998296    4.0635250191
H        1.6361285968   -0.2040213151    2.3590373309
H       -0.7087576376   -3.8048658042    6.0014300055
H       -0.9079688375   -6.0636250656    5.0025874561
H       -1.0585750969   -2.0797588222    2.0768887291
H        3.0902051892   -1.4458287958    5.2525554041
H        1.1602106084   -0.7227884592    6.4429869506
29   

C        2.1000073446   -3.2793192527    0.8611411469
C        2.2728395577   -4.0141884879    2.0381577074
C        1.9395258927   -1.8916874507    0.9241414479
C        2.2877670053   -3.3612636486    3.2760795398
C        1.9575761026   -1.2397569138    2.1622228848
C       -0.7993055590   -3.9544818691    4.9175866725
C       -0.9078715394   -5.2112776132    4.3153913101
C       -1.0269132962   -2.9231086789    2.7495172055
C        2.1401816937   -1.9678322427    3.3463124774
C       -0.8393663158   -2.7967770811    4.1339280562
C       -1.0729238668   -5.3368067382    2.9299861534
C       -1.1430341924   -4.1768083535    2.1381739061
C        2.1264060470   -1.2895134311    4.6700026622
C        1.0602188145   -1.0368348903    5.4342764506
O       -0.9286193467   -0.0925634502    3.8835372045
O       -1.5321067932   -1.0225163317    6.0613921597
S       -0.6601556286   -1.1414297933    4.8820548110
Cl      -1.1860490536   -6.9293310811    2.2131623059
Cl      -1.3591885427   -4.2727320235    0.4034377601
H        2.0810477287   -3.7856094078   -0.0976623111
H        2.3854950603   -5.0914522476    1.9915504394
H        1.7953018723   -1.3200290024    0.0141144251
H        2.4097850082   -3.9405678355    4.1842869866
H        1.8173749043   -0.1643559023    2.2057815814
H       -0.6787107589   -3.8779013147    5.9947865937
H       -0.8651610187   -6.1060361346    4.9250708303
H       -1.0718463821   -2.0322320051    2.1290746090
H        3.0997569462   -1.0568188137    5.0898230271
H        1.1829347097   -0.6684735821    6.4412061025
29   

C        2.7883024110   -4.2957560969    2.0007116463
C        3.1455879272   -4.1035585828    3.3386402304
C        2.0482281446   -3.3161486629    1.3323337318
C        2.7582741725   -2.9364868623    4.0068926939
C        1.6646323566   -2.1491160004    2.0025146920
C       -0.3982661432   -4.1793695897    3.9962225323
C       -0.7766361369   -4.8744860514    2.8471973702
C       -1.7264167796   -2.2989478995    3.2794379222
C        2.0025143710   -1.9545791265    3.3505991127
C       -0.8571983777   -2.8759194794    4.2152497633
C       -1.6182491512   -4.2878158751    1.8958761429
C       -2.1038854664   -2.9853365252    2.1172432455
C        1.6164645780   -0.7049149725    4.0536402430
C        0.6689720958   -0.5680780713    4.9868592657
O       -1.4469011604   -1.3783679458    6.4010579842
O        0.5584980840   -2.7740345579    6.5355539538
S       -0.2950534383   -1.9359499948    5.6754084435
Cl      -2.0407997417   -5.1815087142    0.4518040634
Cl      -3.1576846069   -2.2037156499    0.9588658113
H        3.0871769492   -5.1998055674    1.4818963607
H        3.7239016660   -4.8573229776    3.8612731973
H        1.7697016419   -3.4598554097    0.2943428913
H        3.0369261364   -2.7967742132    5.0469469526
H        1.0902851569   -1.3962578625    1.4741134060
H        0.2717294427   -4.6465086095    4.7137166051
H       -0.4028778541   -5.8779170156    2.6826346283
H       -2.1057622435   -1.2947386766    3.4431838519
H        2.0700027168    0.2075029319    3.6800129547
H        0.4268863524    0.4032832143    5.3900448516
29   

C        2.8474046368   -4.2853834793    2.0180144993
C        3.0672225092   -4.1107182380    3.3872403533
C        2.2083532700   -3.2819091896    1.2844441922
C        2.6400282118   -2.9390194823    4.0219433503
C        1.7875290692   -2.1084726954    1.9203199125
C       -0.4114493789   -4.1920274901    3.9949096779
C       -0.8038595059   -4.8720752322    2.8415554164
C       -1.7303285621   -2.2944911270    3.3077137402
C        1.9831324431   -1.9310626064    3.2986739001
C       -0.8572750923   -2.8869503293    4.2299318647
C       -1.6495690128   -4.2696460284    1.9036917169
C       -2.1239992142   -2.9662899071    2.1427825283
C        1.5350846803   -0.6883072074    3.9660982485
C        0.6707270690   -0.5830064508    4.9832800024
O       -1.4104915406   -1.4096482536    6.4389630337
O        0.5998787252   -2.8000523088    6.5279985941
S       -0.2710339329   -1.9591505395    5.6882332922
Cl      -2.0924186446   -5.1455670068    0.4548374718
Cl      -3.1836096532   -2.1653087496    1.0030738282
H        3.1754689596   -5.1940401146    1.5255499870
H        3.5698044222   -4.8815186906    3.9608783749
H        2.0370526562   -3.4124014130    0.2217841180
H        2.8191563200   -2.8147622981    5.0855706205
H        1.2900823252   -1.3393895084    1.3398844856
H        0.2596281257   -4.6721168490    4.7027065179
H       -0.4392476817   -5.8765322951    2.6632767033
H       -2.0997189426   -1.2887604632    3.4842834768
H        1.8584970227    0.2400427961    3.5063561421
H        0.4396685968    0.3814108346    5.4090896637
29   

C        2.9381548262   -4.2200080409    1.9827390617
C        2.9751814254   -4.1077969486    3.3746933649
C        2.4433449293   -3.1624324304    1.2157297195
C        2.5064765156   -2.9457302140    3.9975422686
C        1.9814622732   -1.9985676722    1.8405215679
C       -0.4718363394   -4.1820177178    4.0738769088
C       -0.8817284791   -4.8997049464    2.9497117442
C       -1.7545491959   -2.2875811689    3.3140760290
C        1.9906428089   -1.8803797955    3.2396474813
C       -0.8906127397   -2.8597862971    4.2571460279
C       -1.7207676953   -4.3193153527    1.9919705816
C       -2.1677401351   -2.9980320525    2.1795906511
C        1.4740279099   -0.6565091255    3.8779540664
C        0.6641752122   -0.5463310133    4.9421104181
O       -1.4353553115   -1.3004040299    6.4079713513
O        0.5506751463   -2.7130206461    6.5624302692
S       -0.2983537040   -1.8894856473    5.6842537327
Cl      -2.1929039803   -5.2460491066    0.5845507088
Cl      -3.2206116857   -2.2239607575    1.0153117075
H        3.2978619857   -5.1213904684    1.4990633369
H        3.3709839471   -4.9189558721    3.9755962630
H        2.4153319317   -3.2438819988    0.1348962013
H        2.5619337230   -2.8719104550    5.0783563117
H        1.5947649681   -1.1900228905    1.2301285084
H        0.1876938209   -4.6487529518    4.8011817489
H       -0.5398289027   -5.9183872699    2.8113296715
H       -2.1050995129   -1.2691951669    3.4523351320
H        1.7213463888    0.2721383423    3.3736802146
H        0.4562773345    0.4248091197    5.3647924782
29   

C        3.0358056919   -4.0341727395    1.7318752020
C        2.7687044027   -4.1483472997    3.0970776382
C        2.8214717150   -2.8153142498    1.0865685513
C        2.2771234725   -3.0503917830    3.8117232414
C        2.3319140132   -1.7182544111    1.8038848811
C       -0.6795806092   -4.3060530998    4.3343938139
C       -1.1066372152   -5.1047697546    3.2727213023
C       -1.5975685161   -2.3706145693    3.2274296383
C        2.0358168978   -1.8186730847    3.1748676121
C       -0.9101464910   -2.9258691595    4.3150785269
C       -1.7733943693   -4.5475770701    2.1756347010
C       -2.0245010386   -3.1630128344    2.1541786851
C        1.4875024921   -0.6491378751    3.8708062028
C        0.6529315345   -0.5596063127    4.9213517992
O       -1.4770994223   -1.2550018853    6.3676402387
O        0.4919999268   -2.6577651667    6.6277608672
S       -0.3296157089   -1.8751238881    5.6885311761
Cl      -2.2816664851   -5.5825630100    0.8590982288
Cl      -2.8567069702   -2.4137880197    0.8090150862
H        3.4147377570   -4.8853927806    1.1772133505
H        2.9498533611   -5.0870848521    3.6082301146
H        3.0320998945   -2.7195959934    0.0272779700
H        2.1182105605   -3.1656701224    4.8757547813
H        2.1657938759   -0.7841833592    1.2787337393
H       -0.1628277428   -4.7589560199    5.1770982263
H       -0.9192172540   -6.1717238086    3.2951875610
H       -1.8019106528   -1.3047100155    3.2040369348
H        1.7648606644    0.3052555151    3.4347008203
H        0.4489592706    0.4115617048    5.3464210907
29   

C        3.3431324168   -3.9362529273    1.7049329653
C        2.8302859655   -4.1448919300    2.9852826343
C        3.2553509601   -2.6701255946    1.1267867707
C        2.2226000431   -3.0939809021    3.6813657899
C        2.6481492033   -1.6207101025    1.8248539917
C       -0.7889887242   -4.3438475711    4.3990066754
C       -1.3004526061   -5.1636906352    3.3917680352
C       -1.7282163058   -2.4208651417    3.2878786498
C        2.1088345871   -1.8098534557    3.1117901053
C       -0.9889239499   -2.9594782890    4.3498815454
C       -2.0230078248   -4.6240619405    2.3213231874
C       -2.2412321252   -3.2348255004    2.2699757317
C        1.4424836690   -0.6768155944    3.7569882841
C        0.6016603581   -0.5815683806    4.8046188615
O       -1.4303447926   -1.2475402859    6.3943523460
O        0.5508989089   -2.6439325800    6.5701899997
S       -0.3236140237   -1.8816674163    5.6627889123
Cl      -2.6428120706   -5.6864428891    1.0762263112
Cl      -3.1422956380   -2.5067600305    0.9577915170
H        3.8127143120   -4.7512935938    1.1654447839
H        2.9102455517   -5.1223350847    3.4473659991
H        3.6554017981   -2.5001669130    0.1334514251
H        1.8803460446   -3.2988761629    4.6836053312
H        2.5860848578   -0.6501948535    1.3451561393
H       -0.2363447493   -4.7846816254    5.2253014317
H       -1.1394955635   -6.2342895626    3.4377634364
H       -1.9113683920   -1.3517088430    3.2432521715
H        1.6711922722    0.2821574237    3.3031764563
H        0.3527398091    0.4012082903    5.1759385670
29   

C        2.8480716643   -2.1961290325    0.3981605711
C        1.4892035582   -2.1444647036    0.7054602042
C        3.7858451400   -1.8886362603    1.3823645972
C        1.0691152271   -1.7926639028    1.9932226473
C        3.3631074255   -1.5369205625    2.6687514339
C       -0.7088832779   -4.1786419165    5.3647506361
C       -0.6499508115   -5.5528840635    5.1236575449
C       -1.4878985912   -3.8356432106    3.1090313261
C        1.9959776804   -1.4836688375    3.0097179211
C       -1.1134186030   -3.3027494239    4.3517659320
C       -0.9991529431   -6.0817165972    3.8753945217
C       -1.4268032886   -5.2115770483    2.8559781391
C        1.6517682300   -1.1550317751    4.3938911743
C        0.5039679391   -1.0449878674    5.0926639046
O       -1.6783372161   -0.7795729855    3.4766257681
O       -2.0412977578   -1.2536960636    5.8383531480
S       -1.1947588915   -1.5058985972    4.6623263136
Cl      -0.9046443589   -7.8095980309    3.6128329081
Cl      -1.8861396155   -5.8177838731    1.2794267346
H        3.1721091700   -2.4700791737   -0.5997484028
H        0.7535187226   -2.3732181708   -0.0575291953
H        4.8443980628   -1.9248279262    1.1505784225
H        0.0082193043   -1.7504989021    2.1582099874
H        4.1205464040   -1.3111385541    3.4110473890
H       -0.4430626335   -3.7917993945    6.3448262761
H       -0.3324775032   -6.2241932836    5.9129358792
H       -1.8400555975   -3.1767619721    2.3201630134
H        2.5178851427   -0.9047259272    4.9977997946
H        0.5606722598   -0.6501702185    6.0958860985
29   

C        2.5737041144   -2.6838904443    0.6592739444
C        1.2555810096   -2.2934620106    0.8950609070
C        3.5375834695   -2.4841022266    1.6474504694
C        0.9003021654   -1.7157603927    2.1189710360
C        3.1794532479   -1.9070698169    2.8708055674
C       -0.3692627480   -4.1254128958    5.3946497978
C       -0.1334499851   -5.4672095863    5.0870675877
C       -1.3049989189   -3.8081791246    3.1954787402
C        1.8521548331   -1.5215584822    3.1399369982
C       -0.9433446048   -3.2774995986    4.4426912429
C       -0.4703170915   -5.9901989567    3.8325022753
C       -1.0668819257   -5.1496547817    2.8753592411
C        1.5406387527   -0.9859316772    4.4666903558
C        0.3870297600   -0.8071182444    5.1389706228
O       -1.9173083769   -0.8440472428    3.7014063445
O       -2.0349691752   -1.4123841496    6.0648060959
S       -1.2495255004   -1.5206143897    4.8259754603
Cl      -0.1492953136   -7.6750378481    3.4845290878
Cl      -1.5155140269   -5.7490865122    1.2931195576
H        2.8478568202   -3.1335375093   -0.2886594850
H        0.5048355662   -2.4302148691    0.1247041631
H        4.5648300956   -2.7811216942    1.4682459524
H       -0.1209768216   -1.3886487635    2.2346791805
H        3.9483404476   -1.7759974880    3.6240417602
H       -0.1072560783   -3.7417769784    6.3769249635
H        0.3155712648   -6.1176027802    5.8282733979
H       -1.7801053348   -3.1720289215    2.4537974228
H        2.4138765180   -0.6576676378    5.0211660974
H        0.4082751966   -0.2334990427    6.0532988389
29   

C        2.3665364292   -2.8756695908    0.7558145433
C        1.1397759357   -2.2297745995    0.9151885649
C        3.3044390773   -2.8398231092    1.7888695234
C        0.8467038009   -1.5625741660    2.1097194451
C        3.0092237306   -2.1707648328    2.9819711681
C       -0.2860183964   -4.0824343653    5.3888586476
C        0.0353284364   -5.4020041316    5.0621146493
C       -1.1457716497   -3.7638838699    3.1594261049
C        1.7694638624   -1.5350269365    3.1722012215
C       -0.8641232497   -3.2440858522    4.4312333938
C       -0.2184428462   -5.9113734872    3.7823856820
C       -0.8206309395   -5.0816415134    2.8196347444
C        1.4908088535   -0.8916382573    4.4613580667
C        0.3362431087   -0.7085524134    5.1266550653
O       -1.9683297901   -0.8636090706    3.7076796786
O       -2.0442449697   -1.4450053613    6.0721074685
S       -1.2625264263   -1.5088150886    4.8276574498
Cl       0.2136109331   -7.5656943974    3.4093502608
Cl      -1.1648253959   -5.6632998655    1.2048912500
H        2.5918442543   -3.3962939727   -0.1683703608
H        0.4140385656   -2.2391178331    0.1095810278
H        4.2613123430   -3.3349511285    1.6673672080
H       -0.0974670637   -1.0391976869    2.1829807297
H        3.7498250313   -2.1654962951    3.7739125617
H       -0.0847058582   -3.7074486068    6.3886258376
H        0.4887918074   -6.0449341001    5.8070047230
H       -1.6189356799   -3.1340792594    2.4112417050
H        2.3722649764   -0.5375205524    4.9862001422
H        0.3328205234   -0.0893183845    6.0108372663
29   

C        2.1200490959   -2.9628673544    0.8077645508
C        1.0734936038   -2.0426708099    0.9002505374
C        2.9596209714   -3.1692281864    1.9048968137
C        0.8578452998   -1.3431125841    2.0927729486
C        2.7462717500   -2.4634536274    3.0944106897
C       -0.2636127298   -4.0372392744    5.3840449530
C        0.1404171154   -5.3345072274    5.0587383529
C       -0.9881455331   -3.7171841638    3.1073751683
C        1.6814244415   -1.5556637811    3.2119421285
C       -0.8137218770   -3.2079312537    4.4022726060
C       -0.0031986388   -5.8305447921    3.7567483687
C       -0.5811366624   -5.0124944795    2.7696985139
C        1.4503236379   -0.8541780291    4.4870516315
C        0.2923686732   -0.6566461929    5.1360410143
O       -1.9499662898   -0.8557560046    3.6337047443
O       -2.1081046646   -1.4401650339    5.9996128012
S       -1.2801015185   -1.4855048408    4.7844357180
Cl       0.5378265303   -7.4527916638    3.3850977605
Cl      -0.7883741618   -5.5785028199    1.1261901930
H        2.2817925884   -3.5120056050   -0.1132249611
H        0.4260214363   -1.8693763417    0.0478567167
H        3.7748161434   -3.8805869215    1.8351801500
H        0.0491125866   -0.6215328324    2.1373784461
H        3.4027152076   -2.6421683006    3.9385899982
H       -0.1419003933   -3.6698646829    6.3993678203
H        0.5759538424   -5.9691200334    5.8212336033
H       -1.4323759324   -3.0922566325    2.3377259586
H        2.3446290011   -0.5216272585    5.0041349757
H        0.2665840399   -0.0297603311    6.0142545925
29   

C        2.0209840233   -2.9779182985    0.8329866823
C        1.1113938528   -1.9175485086    0.8655147191
C        2.7467444707   -3.3050874951    1.9815412152
C        0.9200584754   -1.1942870457    2.0480045003
C        2.5583402774   -2.5763709730    3.1613952396
C       -0.2694107266   -4.0090807470    5.3802668113
C        0.1551621275   -5.3037195885    5.0701555034
C       -0.9163635381   -3.6953504008    3.0791189688
C        1.6295380704   -1.5256280174    3.2132946678
C       -0.7917864995   -3.1844572299    4.3792861149
C        0.0573879782   -5.8026739118    3.7650364422
C       -0.4932197852   -4.9900309677    2.7581178546
C        1.4232965841   -0.7666093958    4.4665115469
C        0.2768085410   -0.6301812098    5.1448541026
O       -1.9034349528   -0.8369348995    3.5614493153
O       -2.1521467520   -1.4168485896    5.9238813311
S       -1.2795985649   -1.4626296606    4.7401606575
Cl       0.6222708791   -7.4213730709    3.4137059868
Cl      -0.6458684705   -5.5622119637    1.1106840863
H        2.1630009244   -3.5448278189   -0.0804660227
H        0.5500131721   -1.6554956298   -0.0244268903
H        3.4532281718   -4.1271352504    1.9587026166
H        0.2105852822   -0.3725335889    2.0587687557
H        3.1244300928   -2.8437936192    4.0464930524
H       -0.1835827093   -3.6396605201    6.3984943855
H        0.5705851991   -5.9342381826    5.8472040542
H       -1.3331652648   -3.0717746236    2.2931553990
H        2.3186965323   -0.3770062563    4.9399806089
H        0.2399716431   -0.0296198429    6.0407811933
29   

C        1.9874168497   -3.0003519591    0.8745153109
C        1.1729490577   -1.8650584045    0.8371465028
C        2.6058752764   -3.3719575836    2.0715388749
C        0.9729124730   -1.1076883991    1.9966991920
C        2.4057443093   -2.6112983002    3.2290357798
C       -0.2600923251   -4.0229842072    5.3990052790
C        0.1633921333   -5.3144603533    5.0735829988
C       -0.9072017251   -3.6820011562    3.1013469757
C        1.5741603006   -1.4811642216    3.2071219398
C       -0.7828979730   -3.1866553862    4.4077815488
C        0.0622168142   -5.7991743104    3.7633055373
C       -0.4887851386   -4.9748274827    2.7661613293
C        1.3733435136   -0.6667190348    4.4319323276
C        0.2687478577   -0.6225120063    5.1838498702
O       -1.9159931185   -0.8425011654    3.6172684543
O       -2.1440977080   -1.4425489027    5.9781370332
S       -1.2798098123   -1.4713238325    4.7877111729
Cl       0.6240694192   -7.4147800771    3.3932061458
Cl      -0.6474378329   -5.5303750302    1.1135214411
H        2.1375065108   -3.5919983439   -0.0218063864
H        0.6924347284   -1.5713471577   -0.0894624024
H        3.2373257314   -4.2526655581    2.1035663570
H        0.3339070240   -0.2306891928    1.9593023446
H        2.8886766660   -2.9101209853    4.1525202267
H       -0.1740884211   -3.6657589297    6.4215721892
H        0.5792671253   -5.9543171195    5.8427794043
H       -1.3212011196   -3.0477876160    2.3223188390
H        2.2515842937   -0.1575634515    4.8155728931
H        0.2458648687   -0.0465842834    6.0961995186
29   

C        2.0008780655   -3.1045980447    0.9056340155
C        1.2681994125   -1.9229039040    0.7620575797
C        2.5022276647   -3.4623487823    2.1601607808
C        1.0360326527   -1.1028048521    1.8720927091
C        2.2661485599   -2.6412729601    3.2684748445
C       -0.2207358222   -4.0657479060    5.3690326285
C        0.1883892471   -5.3473681322    4.9895397854
C       -0.9545806258   -3.6573842622    3.1082351960
C        1.5203713477   -1.4595771127    3.1377556883
C       -0.7797996297   -3.2005958337    4.4230959489
C        0.0354099843   -5.7937288356    3.6705210212
C       -0.5527789478   -4.9405686083    2.7199207449
C        1.2976309745   -0.5725293548    4.3104135501
C        0.2614730286   -0.5972849427    5.1532333188
O       -2.0314671840   -0.8788820063    3.7707713008
O       -2.0448365554   -1.5168678819    6.1299558702
S       -1.2802178522   -1.5036122380    4.8727560090
Cl       0.5799870247   -7.3979501607    3.2316135920
Cl      -0.7778278207   -5.4482045991    1.0595490682
H        2.1776562271   -3.7431528555    0.0471618437
H        0.8778778767   -1.6413492421   -0.2095848422
H        3.0696774303   -4.3789642203    2.2750755278
H        0.4636493543   -0.1884363161    1.7525359076
H        2.6586195706   -2.9279754534    4.2375458022
H       -0.0985193396   -3.7398040079    6.3984290841
H        0.6316851975   -6.0103082866    5.7230890638
H       -1.3981194567   -3.0006727342    2.3648404807
H        2.1082879671    0.1095252946    4.5459238043
H        0.2687855217    0.0038675412    6.0494558388
29   

C        3.0349364240   -3.5152454952    2.1410918734
C        1.9431757542   -3.0684831127    1.3899588303
C        3.3210258881   -2.9209119874    3.3742495796
C        1.1432099450   -2.0243885056    1.8682491589
C        2.5189021808   -1.8790036798    3.8530740518
C        0.1962009659   -4.2880832893    4.3855040066
C        0.1131052327   -5.3007930032    3.4293548437
C       -1.8098593000   -3.2957256641    3.4888044162
C        1.4311536507   -1.4136391991    3.0994111207
C       -0.7574984881   -3.2649358483    4.4139097502
C       -0.9187112146   -5.3152773980    2.4845603094
C       -1.8957818319   -4.3026303900    2.5177149413
C        0.5522199119   -0.3315478905    3.6110391879
C       -0.3455938780   -0.4263983433    4.5971876953
O       -1.8624944276   -1.7344609399    6.3626947360
O        0.5498773725   -2.1141404117    6.5033450229
S       -0.6061242002   -1.8994496236    5.6153833173
Cl      -0.9669134149   -6.5848990271    1.2811159467
Cl      -3.2067049998   -4.2720301231    1.3584986690
H        3.6560496933   -4.3227396813    1.7696801777
H        1.7125279743   -3.5338513781    0.4381966417
H        4.1627806434   -3.2672194475    3.9635576830
H        0.2923885686   -1.6936198724    1.2829770944
H        2.7382980258   -1.4320128982    4.8179321987
H        1.0161158895   -4.2854363964    5.0993804651
H        0.8654176201   -6.0800750895    3.4099720248
H       -2.5686227553   -2.5192157835    3.5088611651
H        0.5569720430    0.5917431163    3.0406838652
H       -0.9805475683    0.4101059011    4.8458350016
29   

C        3.0799953663   -3.5025370252    2.1267459418
C        2.0582947814   -3.0169429977    1.3050048427
C        3.2537517217   -2.9708287792    3.4080225718
C        1.2137728298   -1.9989771614    1.7625588275
C        2.4052091038   -1.9575774407    3.8675260436
C        0.1762329850   -4.3086851122    4.4129479522
C        0.0872424074   -5.3169425952    3.4526804686
C       -1.8240549321   -3.3015061913    3.5205477170
C        1.3783338008   -1.4600618123    3.0493728685
C       -0.7699364967   -3.2786386903    4.4436092439
C       -0.9458494750   -5.3226608282    2.5091305097
C       -1.9178986085   -4.3054950390    2.5475914937
C        0.4625115355   -0.3997601923    3.5265953024
C       -0.3440239897   -0.4472087316    4.5943177991
O       -1.8525509193   -1.7263929044    6.3892524735
O        0.5579055428   -2.1186802226    6.5177925160
S       -0.6024486694   -1.9061355864    5.6350502109
Cl      -1.0024209203   -6.5875336198    1.3010854590
Cl      -3.2314481254   -4.2645100739    1.3916934709
H        3.7366574028   -4.2885573633    1.7707133783
H        1.9184787434   -3.4303073751    0.3124489325
H        4.0460262352   -3.3414616233    4.0489015437
H        0.4208684201   -1.6361611348    1.1179698705
H        2.5486014753   -1.5534883816    4.8650151060
H        0.9965810310   -4.3135231670    5.1262511299
H        0.8355898928   -6.0999248746    3.4290024859
H       -2.5771264497   -2.5195453548    3.5426514994
H        0.3552203595    0.4620835041    2.8758110463
H       -0.9511493853    0.4044035206    4.8607167602
29   

C        3.1689471585   -3.4158302490    2.0462331185
C        2.2470923623   -2.8246828531    1.1776742094
C        3.2050539160   -3.0293502019    3.3887704738
C        1.3589735640   -1.8526162543    1.6520216687
C        2.3131697193   -2.0620426593    3.8646470121
C        0.1131417279   -4.3359746787    4.4587763225
C        0.0098295003   -5.3603555165    3.5171255844
C       -1.8622984409   -3.3077834451    3.5357793413
C        1.3698433411   -1.4732091673    3.0057975980
C       -0.8131284586   -3.2874402616    4.4642712242
C       -1.0200164494   -5.3657352962    2.5698372252
C       -1.9721247547   -4.3293302924    2.5833496497
C        0.4228466449   -0.4465999240    3.4780043970
C       -0.3341251942   -0.4599271462    4.5854622072
O       -1.8963336812   -1.6879747461    6.3685867588
O        0.4997043945   -2.1272797521    6.5482456483
S       -0.6372531028   -1.9021026984    5.6388840169
Cl      -1.0996638366   -6.6563198076    1.3905737785
Cl      -3.2826226305   -4.2881775290    1.4239710154
H        3.8593399348   -4.1664067185    1.6776867425
H        2.2203543094   -3.1191576385    0.1345264418
H        3.9283143627   -3.4733879769    4.0636658238
H        0.6486213013   -1.4046813584    0.9660174140
H        2.3708090972   -1.7594034684    4.9048913735
H        0.9269521507   -4.3457243798    5.1794708328
H        0.7418360034   -6.1590499700    3.5129957708
H       -2.6012768677   -2.5121741946    3.5400048059
H        0.2612000424    0.3873910007    2.8025824205
H       -0.9102372734    0.4110001808    4.8584918914
29   

C        3.2150497691   -3.2063816946    1.8146984194
C        2.4537225243   -2.3918971490    0.9729653885
C        3.0626793100   -3.1068679617    3.1996482465
C        1.5313385569   -1.4898784386    1.5150425883
C        2.1396937975   -2.2064743235    3.7427217139
C       -0.0128551684   -4.4295135761    4.7469957969
C       -0.0996694053   -5.5370010806    3.9023122587
C       -1.7679410849   -3.3538796421    3.4915059213
C        1.3408195966   -1.4058988107    2.9079785998
C       -0.8395071460   -3.3194421071    4.5406048118
C       -1.0113845868   -5.5630457349    2.8408211065
C       -1.8582890868   -4.4581899519    2.6345049511
C        0.3671113208   -0.4334560458    3.4188229611
C       -0.4028945394   -0.4581983779    4.5205270722
O       -1.9937784302   -1.6287042933    6.3119721913
O        0.3923029509   -2.0198719380    6.5865668127
S       -0.7132753682   -1.8592909513    5.6265411516
Cl      -1.0804049524   -6.9666547926    1.7977429152
Cl      -3.0189953691   -4.4383427574    1.3245988255
H        3.9300862553   -3.9052246721    1.3949599509
H        2.5783694363   -2.4589339226   -0.1020017733
H        3.6684380614   -3.7199622806    3.8573716563
H        0.9505180817   -0.8668317526    0.8439728340
H        2.0778740773   -2.1218373941    4.8199870735
H        0.7024157196   -4.4298704348    5.5658647931
H        0.5480179654   -6.3896790132    4.0679388240
H       -2.4306243185   -2.5095441139    3.3285080111
H        0.2042648136    0.4250075889    2.7749849197
H       -0.9893694526    0.4122873370    4.7728659753
29   

C        3.4620711610   -3.0065230010    1.7369232343
C        2.7925325791   -2.0836189066    0.9314269531
C        3.1263364358   -3.1172961256    3.0875085454
C        1.7791146221   -1.2848498101    1.4726140760
C        2.1128954408   -2.3193093451    3.6298267291
C       -0.0948381950   -4.4990427316    4.8131086972
C       -0.2639741978   -5.6467841260    4.0369137950
C       -1.8964635645   -3.4403530926    3.6100239527
C        1.4007154955   -1.4117926201    2.8253416686
C       -0.9041052938   -3.3777304974    4.5976829855
C       -1.2427237860   -5.7030262507    3.0378482009
C       -2.0710552165   -4.5858849051    2.8232684049
C        0.3485800079   -0.5186111927    3.3172241204
C       -0.4185660792   -0.5318434065    4.4236353826
O       -1.9391850885   -1.5880227967    6.3384545817
O        0.4474104568   -2.0146361565    6.5273895590
S       -0.6950296411   -1.8740292620    5.6085680052
Cl      -1.4191403565   -7.1597826841    2.0840010710
Cl      -3.3156211696   -4.6031958590    1.5925678240
H        4.2484252881   -3.6252326235    1.3189254868
H        3.0600571561   -1.9848848045   -0.1146523546
H        3.6620944741   -3.8133854287    3.7230013024
H        1.2775888051   -0.5739745200    0.8253129850
H        1.9268667755   -2.4022723702    4.6894621653
H        0.6660121576   -4.4803577625    5.5896439439
H        0.3683809959   -6.5095539186    4.2098798612
H       -2.5484913675   -2.5881556770    3.4441817996
H        0.1412868277    0.3219397373    2.6626949917
H       -1.0366729481    0.3280670050    4.6336447040
29   

C        2.4745837653   -3.0687438024    0.1960148594
C        3.2869201287   -2.1549218689    0.8681618456
C        1.1476594119   -3.2354085742    0.5942749747
C        2.7752897848   -1.4186723338    1.9424313075
C        0.6346479066   -2.4991533643    1.6680050426
C       -0.3630697004   -3.5505180058    5.8165729513
C        0.0838967157   -4.8344077056    6.1365616097
C       -1.3061729008   -4.4104935244    3.7710090840
C        1.4434006004   -1.5927882359    2.3768946470
C       -1.0500721684   -3.3227620617    4.6195268027
C       -0.1506950442   -5.9149710334    5.2778126663
C       -0.8579149787   -5.7002552409    4.0808561819
C        1.0039482807   -0.7582949509    3.4965637351
C       -0.1472019334   -0.6230432418    4.1848405518
O       -2.3127493464   -1.6416320453    2.8825445883
O       -2.5232235514   -1.1545118283    5.2592979614
S       -1.6402235489   -1.6491603225    4.1922138564
Cl       0.4321712226   -7.5067175010    5.7137110306
Cl      -1.1892004299   -7.0154256785    2.9742228214
H        2.8683866757   -3.6395666500   -0.6376350060
H        4.3153580304   -2.0141953509    0.5550495452
H        0.5068891189   -3.9304659068    0.0631631873
H        3.4317993899   -0.7137035513    2.4401332823
H       -0.4045730773   -2.6437588099    1.9028608237
H       -0.1778326061   -2.7289824255    6.5031789439
H        0.6186152999   -5.0021665131    7.0640685001
H       -1.8675363047   -4.2607797188    2.8527088909
H        1.7612129533   -0.0578196178    3.8333892324
H       -0.2240040789    0.1910024297    4.8898396976
