34

C      2.84438    0.99115   -1.01156
C      0.60422    0.21329   -1.39998
C      3.13619   -0.25166   -0.43558
C      1.56017    1.23534   -1.50732
C      2.10926   -1.21274   -0.38725
C      4.51522   -0.53599    0.10971
C      1.58942    6.90081   -3.64873
C      4.56859    5.64987   -3.62721
C      2.33470   -2.58073    0.20744
C      1.39296    4.59407   -2.94478
C      2.10531    3.44928   -2.23946
N      0.87340   -0.97372   -0.85997
N      2.28978    5.73940   -3.09766
O      3.30766   -3.28587   -0.58564
O      1.14653    2.39863   -2.08971
O      3.26186    5.34153   -4.10334
H      3.62002    1.74825   -1.06228
H     -0.40376    0.38442   -1.77410
H      4.46835   -0.85725    1.15662
H      4.99389   -1.34378   -0.44952
H      5.14891    0.35388    0.06009
H      2.30905    7.70751   -3.80752
H      0.84912    7.23796   -2.91677
H      1.08612    6.67656   -4.60136
H      5.25308    5.34122   -4.42229
H      4.79709    5.10188   -2.70479
H      4.68572    6.72519   -3.44181
H      2.69287   -2.49037    1.24484
H      1.37334   -3.10544    0.21261
H      1.00325    4.24985   -3.91487
H      0.54559    4.91984   -2.33335
H      2.46909    3.77888   -1.25809
H      2.95522    3.10363   -2.83838
H      3.44402   -4.15651   -0.18052
