27

C      2.02121   -0.81770   -0.04913
C      0.63287    3.14562    5.80231
C      3.01647   -0.10705    0.64234
C      1.93979    2.76656    6.12610
C      1.09063   -1.59132    0.63337
C     -0.19954    2.29130    5.07600
C      3.05721   -0.18216    2.02878
C      2.41320    1.51934    5.71543
C      1.11487   -1.67983    2.03829
C      0.26929    1.03760    4.66718
C      2.11259   -0.95115    2.72522
C      1.58295    0.66073    4.99245
O      1.31748   -1.99916    5.01023
O      3.64283   -0.95437    4.90494
O      0.18177   -2.46276    2.61712
O     -0.48651    0.15969    3.94925
S      2.22985   -0.94576    4.50596
H      1.97878   -0.77157   -1.13433
H      0.25448    4.11522    6.11442
H      3.74955    0.48600    0.10440
H      2.58288    3.43393    6.69138
H      0.32602   -2.15470    0.10669
H     -1.21483    2.59409    4.82628
H      3.82402    0.34367    2.59024
H      3.42241    1.19258    5.94547
H      0.32260   -2.46514    3.59216
H     -1.35414    0.54757    3.75290
