23   

C        5.6864125526    1.7746814945    0.0832452509
C        4.7674726448    2.0937469071   -0.9159862583
C        5.4674739706    0.6571261508    0.8884139024
C        3.6365486255    1.2927406435   -1.1114235844
C        4.3351957095   -0.1422401808    0.6911975490
C        3.3976863882    0.1482551491   -0.3220298855
C        1.3098711328   -0.6269174013   -1.5496947653
C        2.1983112263   -0.6870352723   -0.5130619146
C        0.1682547528   -1.5738712597   -1.3489399924
C        1.7411792988   -1.7138808513    0.5142638396
C        0.8125023526   -2.5620053752   -0.3679108530
H        6.5635998051    2.3933312779    0.2356171244
H        4.9279935479    2.9648719397   -1.5408860055
H        6.1758039461    0.4068627944    1.6699671391
H        2.9370053306    1.5730327716   -1.8882507564
H        4.2062837333   -0.9962394405    1.3420613620
H        1.4177088928    0.0030676189   -2.4241103228
H       -0.1546817841   -2.0611055197   -2.2743836617
H       -0.6688496953   -1.0477623564   -0.8784725680
H        1.1805320903   -1.2152894067    1.3114333382
H        2.5462325322   -2.3269502492    0.9280370011
H        0.0867852455   -3.1525764066    0.2001597158
H        1.4401919249   -3.2458183520   -0.9496501477
23   

C        5.6516026154    1.7727663530    0.1059975260
C        4.6608234790    2.1626475922   -0.7961963916
C        5.5133864474    0.5745092047    0.8082678689
C        3.5390799002    1.3507647163   -0.9997260304
C        4.3897686877   -0.2352141008    0.6035971672
C        3.3879415249    0.1268787584   -0.3171525404
C        1.3704667263   -0.7130838373   -1.6035849589
C        2.1913202213   -0.7122278493   -0.5124870485
C        0.1933087560   -1.6156817912   -1.4018076504
C        1.6315449795   -1.6215807353    0.5725220574
C        0.7423259201   -2.5263104641   -0.2941108512
H        6.5223643703    2.3991816601    0.2633906297
H        4.7583751024    3.0966161203   -1.3377729232
H        6.2782527680    0.2692379640    1.5132157979
H        2.7757996250    1.6799081254   -1.6938443797
H        4.3169417128   -1.1592072709    1.1618191217
H        1.5572812542   -0.1566371834   -2.5144246128
H       -0.0775780414   -2.1770146639   -2.3016466200
H       -0.6602133307   -1.0332217300   -1.0398998249
H        1.0300332523   -1.0331748144    1.2727870139
H        2.3863049141   -2.2046547773    1.1066174033
H       -0.0367180183   -3.0471733290    0.2715023489
H        1.3891520377   -3.2733244578   -0.7670323720
23   

C        5.6413221244    1.7683658611    0.1322767292
C        4.5889478884    2.2184493169   -0.6681282278
C        5.5733352734    0.5023418757    0.7185321089
C        3.4763862531    1.3981967030   -0.8885834560
C        4.4582499719   -0.3147431965    0.4970720566
C        3.4032627972    0.1089207824   -0.3287415061
C        1.4491191997   -0.8049865393   -1.6544786983
C        2.2086362474   -0.7352390689   -0.5238182256
C        0.2391247929   -1.6620203717   -1.4454812331
C        1.5561086867   -1.5166423168    0.6072323220
C        0.6957404293   -2.4787700627   -0.2262954871
H        6.5051446974    2.4011124601    0.3020844769
H        4.6317303807    3.2046576564   -1.1160980714
H        6.3849061524    0.1514727896    1.3457290430
H        2.6596951982    1.7645955079   -1.4989406711
H        4.4241287141   -1.2934197108    0.9594492914
H        1.7032657067   -0.3235412895   -2.5917502942
H        0.0091885568   -2.2983640323   -2.3059480400
H       -0.6196667074   -1.0318331503   -1.1925090953
H        0.9306327464   -0.8468734526    1.2060683523
H        2.2653579590   -2.0540235342    1.2431091398
H       -0.1300746522   -2.9271571685    0.3350298869
H        1.3488219095   -3.2807701826   -0.5873628891
23   

C        5.6428838457    1.7544435229    0.1491864771
C        4.5315223051    2.2574947768   -0.5324115937
C        5.6387431212    0.4326816410    0.6030674591
C        3.4240556432    1.4345542003   -0.7686015091
C        4.5281899835   -0.3861728351    0.3658960559
C        3.4191384829    0.0935790363   -0.3472131755
C        1.5290018937   -0.9147023787   -1.7016306084
C        2.2247493325   -0.7562099141   -0.5408781989
C        0.2894186936   -1.7264315864   -1.4833384847
C        1.4884616942   -1.4034335867    0.6223556556
C        0.6537005573   -2.4266822301   -0.1634653343
H        6.5025950831    2.3893934058    0.3311871364
H        4.5247625771    3.2859721111   -0.8749085818
H        6.4948499343    0.0411987248    1.1405954525
H        2.5589755823    1.8345005794   -1.2842822802
H        4.5306768771   -1.4078218912    0.7267923271
H        1.8461821120   -0.5209385832   -2.6605169788
H        0.0960619351   -2.4409838079   -2.2897145935
H       -0.5681200505   -1.0597310911   -1.3464111338
H        0.8477970275   -0.6638146761    1.1131698584
H        2.1525296958   -1.8837375798    1.3473276953
H       -0.2143842763   -2.8010952289    0.3882088102
H        1.3062344373   -3.2731451140   -0.4038524383
23   

C        5.6579672636    1.7343188859    0.1345397839
C        4.4858967931    2.2852549984   -0.3915717404
C        5.7109324112    0.3697367304    0.4335653063
C        3.3731114612    1.4688605389   -0.6258677611
C        4.5950354011   -0.4424191990    0.1983724486
C        3.4231676683    0.0917078029   -0.3552662704
C        1.6249044564   -1.0589438432   -1.7322989712
C        2.2263393877   -0.7610091579   -0.5477672208
C        0.3657000620   -1.8401060861   -1.5142032915
C        1.4050403639   -1.2720187919    0.6261761707
C        0.6250681107   -2.3812907438   -0.0974245090
H        6.5213012062    2.3645582498    0.3157617565
H        4.4367672686    3.3448848694   -0.6149178549
H        6.6149234608   -0.0597948957    0.8500011136
H        2.4614930379    1.9001971792   -1.0225034170
H        4.6366242975   -1.4981338819    0.4394871695
H        2.0212215579   -0.7832533915   -2.7029313855
H        0.2265793539   -2.6438732304   -2.2441093962
H       -0.4939985702   -1.1621805030   -1.5203437174
H        0.7342081417   -0.4832908779    0.9814100446
H        2.0163866464   -1.6620939404    1.4458490533
H       -0.2844257819   -2.6913195802    0.4268016273
H        1.2882407705   -3.2484612407   -0.1882498444
23   

C        5.6876657502    1.7089767577    0.0686553009
C        4.4585637297    2.3004786939   -0.2383828655
C        5.7843201540    0.3176651522    0.1687139786
C        3.3289180960    1.4996500358   -0.4439795983
C        4.6521564307   -0.4795289485   -0.0383957198
C        3.4149758020    0.1014554919   -0.3468766136
C        1.7757850307   -1.2699977282   -1.7292422023
C        2.2139742305   -0.7465139839   -0.5519983296
C        0.5158797755   -2.0538763463   -1.5277164337
C        1.2995216499   -1.1329829327    0.6001637133
C        0.6357005310   -2.3700969188   -0.0264642414
H        6.5633470231    2.3276007830    0.2295110301
H        4.3793058503    3.3787966863   -0.3162779789
H        6.7353315387   -0.1444166163    0.4078175589
H        2.3761618779    1.9590060584   -0.6799153514
H        4.7282860918   -1.5576117771    0.0416916161
H        2.2913364561   -1.1571310222   -2.6761699431
H        0.4700428546   -2.9601048030   -2.1397531354
H       -0.3512276769   -1.4141290166   -1.7225807172
H        0.5676634238   -0.3379504583    0.7745676919
H        1.8410939026   -1.3727467186    1.5205932283
H       -0.3159502181   -2.6403104609    0.4420483386
H        1.3293687030   -3.2108497614    0.0816521012
23   

C        5.7040124904    1.7057165018    0.0062003573
C        4.4432268478    2.3046812739   -0.0705392654
C        5.8209190226    0.3163664466   -0.0964297404
C        3.3015368006    1.5124576115   -0.2394701665
C        4.6766143939   -0.4719612161   -0.2674366083
C        3.4037715480    0.1132658971   -0.3173723764
C        1.9249166226   -1.4661336760   -1.6466636732
C        2.1991330858   -0.7226865353   -0.5393253872
C        0.6625660309   -2.2499103254   -1.4647396254
C        1.1828758464   -0.9847798282    0.5616839568
C        0.6247465448   -2.3303585969    0.0705774218
H        6.5891031533    2.3173711830    0.1399168278
H        4.3490541979    3.3823974862   -0.0014221194
H        6.7975485081   -0.1511981269   -0.0446362029
H        2.3260272317    1.9794183942   -0.3077902346
H        4.7710061098   -1.5482085107   -0.3525174322
H        2.5615770578   -1.5121428690   -2.5228522118
H        0.6976482934   -3.2387819807   -1.9323251889
H       -0.1875225462   -1.6739895734   -1.8457713062
H        0.4110523880   -0.2089456318    0.5428469427
H        1.6333071720   -1.0597684524    1.5564461864
H       -0.3655590214   -2.5654551355    0.4733373758
H        1.3236843223   -3.1149669900    0.3794222189
23   

C        5.6973497547    1.7055896569    0.0104671445
C        4.4265366915    2.2782830557    0.1109788461
C        5.8242432359    0.3409279695   -0.2632777427
C        3.2858875338    1.4831937795   -0.0508619532
C        4.6808469508   -0.4503268642   -0.4264965957
C        3.3980327187    0.1026655345   -0.2941189738
C        2.0058555653   -1.5925565570   -1.5620082268
C        2.1942385425   -0.7234049831   -0.5290747895
C        0.7201110427   -2.3428702856   -1.4060226337
C        1.0815261581   -0.8594184213    0.4997002853
C        0.5502690758   -2.2502940097    0.1187336532
H        6.5819560202    2.3192998432    0.1378251010
H        4.3234147869    3.3388058415    0.3104127235
H        6.8082538659   -0.1052801935   -0.3511815737
H        2.3029370777    1.9346312904    0.0141672249
H        4.7871753770   -1.5062772371   -0.6453127908
H        2.7159877224   -1.7480683478   -2.3660852123
H        0.7796040706   -3.3781186953   -1.7559461622
H       -0.0847123412   -1.8078198888   -1.9213301352
H        0.3232753650   -0.0894818845    0.3257516058
H        1.4417972882   -0.8215927017    1.5325954869
H       -0.4739141564   -2.4346814431    0.4581921749
H        1.2101829754   -2.9970289512    0.5730956467
23   

C        5.6960159804    1.7068174172    0.0333459444
C        4.4243484223    2.2337423431    0.2721402415
C        5.8298142310    0.3806641065   -0.3856148275
C        3.2903226880    1.4312886120    0.1007393514
C        4.6932989693   -0.4185497912   -0.5577352277
C        3.4092259711    0.0860422064   -0.2939578817
C        2.0614699110   -1.6938954274   -1.4926896459
C        2.2093248496   -0.7377691223   -0.5305899238
C        0.7458463190   -2.3955391062   -1.3602265982
C        1.0170345369   -0.7455788117    0.4153739512
C        0.4735613235   -2.1544522909    0.1323821824
H        6.5755189578    2.3264482390    0.1672196182
H        4.3149476935    3.2654416069    0.5863805410
H        6.8143093947   -0.0299086141   -0.5787796506
H        2.3077490667    1.8535083262    0.2746503837
H        4.8115867271   -1.4442880151   -0.8855179750
H        2.8133413333   -1.9405449598   -2.2332515100
H        0.7984561702   -3.4605811916   -1.6065780071
H       -0.0049168337   -1.8934941396   -1.9797515365
H        0.2974420107    0.0197934596    0.1079304821
H        1.2979213785   -0.6138056648    1.4650806920
H       -0.5766208878   -2.2825242861    0.4132364306
H        1.0788006989   -2.8681727354    0.7016065628
23   

C        5.6892643079    1.7092739929    0.0545257377
C        4.4233664719    2.1734989346    0.4186267010
C        5.8269602095    0.4340415194   -0.4982967827
C        3.2988524127    1.3603006975    0.2353977367
C        4.7005373020   -0.3767666912   -0.6818631299
C        3.4209505649    0.0658961469   -0.3031922162
C        2.0999565538   -1.7899051492   -1.4249053240
C        2.2279696074   -0.7665864348   -0.5296377703
C        0.7560687661   -2.4406607526   -1.3175620142
C        0.9755226386   -0.6562886704    0.3280681760
C        0.4009116740   -2.0666701323    0.1287955275
H        6.5611114642    2.3377407396    0.1970326805
H        4.3106304336    3.1657353296    0.8403937599
H        6.8072538036    0.0712860133   -0.7856234637
H        2.3236478800    1.7424543494    0.5117203416
H        4.8298193163   -1.3629585511   -1.1098852827
H        2.8760130733   -2.1149295959   -2.1074710458
H        0.7883706709   -3.5239029934   -1.4704684651
H        0.0614017959   -1.9726936452   -2.0231519213
H        0.3058911370    0.1010398862   -0.0918620293
H        1.1886892363   -0.4452519818    1.3807780503
H       -0.6685006496   -2.1388955833    0.3508195814
H        0.9443006107   -2.7473209342    0.7930736724
23   

C        5.6890035456    1.7096513585    0.0741798809
C        4.4393335881    2.1048873706    0.5552820167
C        5.8174837062    0.4951524155   -0.6024703588
C        3.3210436618    1.2850893368    0.3627961628
C        4.6981562071   -0.3232173534   -0.7950640613
C        3.4325919138    0.0533148632   -0.3090337852
C        2.1349517024   -1.8738998603   -1.3465131741
C        2.2461631201   -0.7920407375   -0.5187855407
C        0.7658707202   -2.4754489568   -1.2773344154
C        0.9427880510   -0.5740788432    0.2370283480
C        0.3301394648   -1.9762724759    0.1069179067
H        6.5554025067    2.3440128265    0.2236646684
H        4.3340024805    3.0494736487    1.0766450968
H        6.7856461525    0.1848622153   -0.9786477156
H        2.3637022697    1.6245980426    0.7376696987
H        4.8273522885   -1.2612510797   -1.3191879570
H        2.9321749866   -2.2711066215   -1.9626220760
H        0.7716895785   -3.5680508028   -1.3413974183
H        0.1341836417   -2.0471128779   -2.0626924992
H        0.3324338973    0.1699082195   -0.2848680591
H        1.0869997095   -0.2943689218    1.2853043691
H       -0.7535210153   -1.9967726744    0.2599148500
H        0.8026718131   -2.6190622478    0.8575559086
23   

C        5.6960718921    1.7052464966    0.0890720130
C        4.4762582745    2.0278239823    0.6860852844
C        5.7960322362    0.5617055549   -0.7049512721
C        3.3582652788    1.2080694924    0.4905651557
C        4.6778979824   -0.2574603955   -0.9002016238
C        3.4395211056    0.0501590050   -0.3058373391
C        2.1701013753   -1.9430363390   -1.2565568090
C        2.2580617444   -0.8081433185   -0.4991277687
C        0.7827306595   -2.5047416838   -1.2430393931
C        0.9101780687   -0.4979625792    0.1382523226
C        0.2611719779   -1.8878233933    0.0608253666
H        6.5614704133    2.3404413006    0.2408307012
H        4.3937872375    2.9162559787    1.3017758334
H        6.7411732116    0.3072429875   -1.1708772644
H        2.4309338976    1.4992534969    0.9656655262
H        4.7877312516   -1.1375104367   -1.5199776956
H        2.9925145570   -2.4031855309   -1.7898475164
H        0.7612697214   -3.5988583302   -1.2212440246
H        0.2228737406   -2.1257996868   -2.1044656217
H        0.3664382663    0.2252460631   -0.4779889858
H        0.9768778232   -0.1571595802    1.1756150309
H       -0.8310017178   -1.8662483544    0.1303910428
H        0.6528760526   -2.4852176453    0.8913090070
23   

C        5.7255616898    1.6995403819    0.1048159811
C        4.5524668817    1.9433561614    0.8209491878
C        5.7732874363    0.6410712848   -0.8036698201
C        3.4279244986    1.1318844830    0.6278450680
C        4.6489476173   -0.1702219215   -0.9955769335
C        3.4543747442    0.0641956737   -0.2890751920
C        2.2161745130   -1.9824468847   -1.1561852067
C        2.2742189628   -0.7995502354   -0.4736592417
C        0.8206876400   -2.5214710290   -1.2027687645
C        0.8901452267   -0.4153842120    0.0318861634
C        0.2152598719   -1.7951166156    0.0051148960
H        6.5956407483    2.3288491765    0.2543170878
H        4.5120896230    2.7628003747    1.5295214508
H        6.6820647458    0.4473834434   -1.3620014953
H        2.5424603281    1.3557576335    1.2066877470
H        4.7140866430   -0.9810037094   -1.7094505354
H        3.0670839013   -2.4906121893   -1.5929009631
H        0.7759224258   -3.6099075659   -1.0957876359
H        0.3341725967   -2.2055411372   -2.1313920391
H        0.4145015935    0.2696717142   -0.6772386681
H        0.8765232057   -0.0009456651    1.0432881284
H       -0.8781660647   -1.7481991337   -0.0138579026
H        0.5259528500   -2.3342825621    0.9066602274
23   

C        5.7318194158    1.6790401660    0.1132008306
C        4.6127407483    1.8394706142    0.9327191779
C        5.7191499138    0.7117650865   -0.8936078712
C        3.4807989648    1.0381480536    0.7413303565
C        4.5869086037   -0.0893683766   -1.0823579937
C        3.4431219064    0.0702795317   -0.2797042664
C        2.2441806300   -2.0284806251   -1.0519381915
C        2.2651530760   -0.7983991961   -0.4587912149
C        0.8504158898   -2.5661791290   -1.1487573417
C        0.8517030630   -0.3605040485   -0.1013692837
C        0.1674723228   -1.7350381045   -0.0533642716
H        6.6080029185    2.3003495030    0.2604574202
H        4.6214455524    2.5833735449    1.7211961994
H        6.5867350197    0.5812184124   -1.5302964661
H        2.6358865406    1.1768689977    1.4028255547
H        4.5974627525   -0.8307780786   -1.8715331527
H        3.1235711596   -2.5672299616   -1.3843021722
H        0.7892891638   -3.6409301381   -0.9503651563
H        0.4323433744   -2.3320259540   -2.1331992442
H        0.4413884262    0.2547217120   -0.9085543147
H        0.7681681702    0.1564854926    0.8581013814
H       -0.9213563840   -1.6867047178   -0.1545581390
H        0.4087755330   -2.1931219082    0.9120266128
23   

C        5.7395191759    1.6630611776    0.1186083870
C        4.6793852740    1.7313431760    1.0258376387
C        5.6646649677    0.7918501006   -0.9709367994
C        3.5426793145    0.9364979462    0.8367961046
C        4.5273023614   -0.0031086517   -1.1560671460
C        3.4396109017    0.0748100277   -0.2706976421
C        2.2719010308   -2.0740527329   -0.9356873422
C        2.2654581360   -0.8032193318   -0.4396165551
C        0.8809665167   -2.6096553512   -1.0799457025
C        0.8376129369   -0.3191486278   -0.2340058953
C        0.1333368636   -1.6790534036   -0.1121151823
H        6.6196179900    2.2794889826    0.2629566459
H        4.7384585523    2.3967808735    1.8795575657
H        6.4880719332    0.7304128837   -1.6733168924
H        2.7371496610    0.9877873770    1.5588983928
H        4.4831595268   -0.6761296226   -2.0038911222
H        3.1696092246   -2.6354342552   -1.1675627689
H        0.7934054513   -3.6618815395   -0.7912247593
H        0.5339870715   -2.4625138435   -2.1078652619
H        0.4991062425    0.2212771788   -1.1238200750
H        0.7019360160    0.2914907818    0.6632465941
H       -0.9450139799   -1.6324995032   -0.2940490494
H        0.3006140006   -2.0504298848    0.9048323900
23   

C        5.7442983919    1.6533122428    0.1180910820
C        4.7560102871    1.6152404712    1.1055025944
C        5.5953467110    0.8901245984   -1.0432834967
C        3.6157112069    0.8238209809    0.9242837420
C        4.4544262429    0.0981434500   -1.2197970866
C        3.4370423665    0.0768424907   -0.2538317657
C        2.2875140304   -2.1155251391   -0.7986449976
C        2.2632693699   -0.8078743272   -0.4153209700
C        0.9018089084   -2.6483098021   -0.9962047405
C        0.8345858116   -0.2877179694   -0.3678701500
C        0.0992995321   -1.6234359080   -0.1774800167
H        6.6269910889    2.2675619413    0.2557148982
H        4.8737904831    2.1951002003    2.0138030449
H        6.3641622517    0.9096002290   -1.8072526105
H        2.8603378132    0.7863424422    1.7002278323
H        4.3489651220   -0.4965756808   -2.1194864784
H        3.1936453375   -2.6979973179   -0.9202310768
H        0.7755281395   -3.6679264198   -0.6185190002
H        0.6342027751   -2.5949552132   -2.0564675085
H        0.5756422229    0.1729997232   -1.3265530216
H        0.6508582109    0.4058069355    0.4583789746
H       -0.9612943955   -1.5825037367   -0.4449926635
H        0.1826421889   -1.9010846612    0.8789534973
23   

C        5.7401196193    1.6588794198    0.1090158385
C        4.8424905149    1.4852753459    1.1665193435
C        5.5043906778    1.0241865580   -1.1141411019
C        3.7061961241    0.6858448357    0.9954004053
C        4.3677000997    0.2238515810   -1.2803062016
C        3.4445102499    0.0644123029   -0.2375125344
C        2.2852208738   -2.1633191252   -0.6181031410
C        2.2654146535   -0.8187333144   -0.4041561714
C        0.9041176168   -2.6898190217   -0.8602660595
C        0.8530743617   -0.2675306500   -0.5254935841
C        0.0702251941   -1.5579638566   -0.2352234479
H        6.6193579995    2.2797556330    0.2387838180
H        5.0268570735    1.9672773661    2.1198307631
H        6.2021493115    1.1502945059   -1.9341008980
H        3.0167455891    0.5445488922    1.8194574473
H        4.1913248113   -0.2721244756   -2.2275881119
H        3.1827053104   -2.7708295096   -0.5920353043
H        0.7205002459   -3.6539640762   -0.3756343222
H        0.7200386908   -2.7595999021   -1.9372763790
H        0.6769363839    0.0808636556   -1.5481842365
H        0.6332172419    0.5228893661    0.1988676667
H       -0.9658504459   -1.5308784434   -0.5872523206
H        0.0662967558   -1.7071371672    0.8500272297
23   

C        5.7063629959    1.7161719887    0.0995352486
C        4.9326981662    1.3515311870    1.2055240486
C        5.3651012113    1.2475350403   -1.1728395203
C        3.8195270993    0.5196815908    1.0366584415
C        4.2512296639    0.4153204213   -1.3370353420
C        3.4681396699    0.0426152271   -0.2364538470
C        2.2538883386   -2.1908505912   -0.3524754477
C        2.2821843361   -0.8317888254   -0.4169077549
C        0.8705510266   -2.7074769793   -0.6011258738
C        0.9008259448   -0.2623437947   -0.7007623089
C        0.0500725772   -1.4569207772   -0.2392862976
H        6.5683245031    2.3610586441    0.2281118143
H        5.1936244946    1.7130194696    2.1936334257
H        5.9620755877    1.5288164634   -2.0328494301
H        3.2193943114    0.2386018611    1.8941480692
H        3.9875783485    0.0542442511   -2.3242272939
H        3.1140438594   -2.8082223273   -0.1196823798
H        0.6131106361   -3.5675419006    0.0249324467
H        0.7548580083   -2.9554273664   -1.6614411328
H        0.7861671550   -0.0877794759   -1.7752306927
H        0.6830516483    0.6476369887   -0.1328791540
H       -0.9617823512   -1.4604242694   -0.6567736376
H       -0.0227632284   -1.4118055542    0.8526744131
23   

C        5.6550155411    1.7722714989    0.1151910734
C        5.0117271969    1.2140448865    1.2236140031
C        5.2047983317    1.4714642431   -1.1736522700
C        3.9263489223    0.3491941337    1.0401660595
C        4.1181689631    0.6067371068   -1.3516729900
C        3.4830149147    0.0170012399   -0.2500041438
C        2.1928540433   -2.1662424797   -0.1092771987
C        2.2960650298   -0.8501953583   -0.4424731742
C        0.8070504333   -2.6733200595   -0.3610607119
C        0.9529046346   -0.2895329777   -0.8851059800
C        0.0258522323   -1.3515308775   -0.2718408119
H        6.4965187216    2.4414192443    0.2548591375
H        5.3502991240    1.4532475591    2.2252440655
H        5.6948660562    1.9095601048   -2.0356397881
H        3.4210244714   -0.0725786660    1.9010865990
H        3.7657813019    0.3831705561   -2.3517742139
H        2.9978684728   -2.7511432732    0.3208086440
H        0.4736658885   -3.4045036618    0.3818754388
H        0.7458716541   -3.0946967788   -1.3701354206
H        0.8918463800   -0.2987096549   -1.9778829502
H        0.7528916510    0.7129242377   -0.4937309072
H       -0.9617744859   -1.3929597988   -0.7420176189
H       -0.1012666096   -1.1118086272    0.7892431523
23   

C        5.6388843316    1.7861180807    0.1373631437
C        5.1044990661    1.0807519888    1.2190972246
C        5.0853881516    1.6277736623   -1.1362417985
C        4.0265358129    0.2095543460    1.0225660558
C        4.0064165833    0.7564267825   -1.3276837665
C        3.4840031792    0.0134044768   -0.2588623392
C        2.1421191347   -2.1160073843    0.0290528664
C        2.3008388837   -0.8513616009   -0.4529803963
C        0.7653496307   -2.6300850556   -0.2550391868
C        0.9990084558   -0.3301332469   -1.0435278310
C        0.0104176988   -1.2961292028   -0.3714180425
H        6.4749336362    2.4599073712    0.2871005683
H        5.5211958465    1.2114370026    2.2112647956
H        5.4893823525    2.1816762343   -1.9759418060
H        3.6051509357   -0.3217181243    1.8677851438
H        3.5751533200    0.6458787644   -2.3156200708
H        2.9000393005   -2.6570515878    0.5838823336
H        0.3684510405   -3.2644138537    0.5436037386
H        0.7606815713   -3.1655761792   -1.2104343828
H        1.0053799658   -0.4691390915   -2.1291769434
H        0.7965900098    0.7147708167   -0.7878771261
H       -0.9462249663   -1.3777025413   -0.8971168702
H       -0.1774180502   -0.9304496706    0.6437427167
23   

C        5.6380243962    1.7800015599    0.1508713929
C        5.1970944238    0.9660152365    1.1973206062
C        4.9872330913    1.7346391865   -1.0847081359
C        4.1142715815    0.1004074410    1.0029612280
C        3.9038510954    0.8686453885   -1.2750379672
C        3.4691876097    0.0196370864   -0.2447253227
C        2.0886427343   -2.0692429114    0.1396868856
C        2.2924859941   -0.8486042713   -0.4338548388
C        0.7315793566   -2.6039296789   -0.1967635329
C        1.0423499095   -0.3878491906   -1.1694172031
C       -0.0014031447   -1.2849054706   -0.4862512455
H        6.4777908497    2.4494764592    0.2991573352
H        5.6905177734    1.0076957648    2.1616393249
H        5.3200010420    2.3714706555   -1.8963919455
H        3.7701474439   -0.5130935108    1.8268742056
H        3.4031739110    0.8466746257   -2.2356559877
H        2.8000890411   -2.5685518435    0.7871335877
H        0.2726328471   -3.1629825490    0.6245823684
H        0.7911319703   -3.2230729385   -1.0982082318
H        1.1297858765   -0.6304811951   -2.2331910834
H        0.8266390578    0.6763153631   -1.0307960236
H       -0.9184635296   -1.4114428556   -1.0703330042
H       -0.2581750825   -0.8279767407    0.4755267754
23   

C        5.7332517665    1.6984057384    0.0381682292
C        5.0232926050    1.7449967329   -1.1634406997
C        5.2752418504    0.8918940359    1.0821733149
C        3.8531983778    0.9920259600   -1.3164087780
C        4.1052646619    0.1392252501    0.9263035932
C        3.3636531262    0.1897129285   -0.2672796349
C        1.1335567282   -0.4157924817   -1.3165424810
C        2.1527460967   -0.6308468774   -0.4338707671
C        0.1068575891   -1.5021761324   -1.2348975364
C        1.9406126267   -1.9410672215    0.3108802689
C        0.9706865493   -2.6334826392   -0.6583087068
H        6.6386673476    2.2824747586    0.1585008958
H        5.3802695296    2.3621333058   -1.9800361890
H        5.8261072135    0.8483560043    2.0147961867
H        3.3254261993    1.0301879116   -2.2611942304
H        3.7670988502   -0.4795832866    1.7485622788
H        1.0827800986    0.4147136575   -2.0105221588
H       -0.3234254539   -1.7624109214   -2.2069965921
H       -0.6803059598   -1.2145918252   -0.5298671178
H        1.4574609672   -1.7448391538    1.2733513976
H        2.8618802377   -2.5159618068    0.4485128139
H        0.3893789785   -3.4373904607   -0.1957431679
H        1.5608377544   -3.0547067382   -1.4793630827
23   

C        5.7203044938    1.7234237002    0.0470416405
C        4.9494886134    1.8654176189   -1.1075470227
C        5.3341911636    0.8076167695    1.0266644521
C        3.7936892227    1.0947467247   -1.2794182368
C        4.1781913374    0.0376356481    0.8525692425
C        3.3793782981    0.1687438242   -0.3003233518
C        1.1869388406   -0.4898892719   -1.4094441633
C        2.1709597129   -0.6530664534   -0.4754842674
C        0.1239192065   -1.5346327885   -1.2695850381
C        1.8821376580   -1.8757538466    0.3841812108
C        0.9251396828   -2.6291222610   -0.5513912525
H        6.6150386606    2.3206405729    0.1818769886
H        5.2470237769    2.5725021792   -1.8734608437
H        5.9295619762    0.6932086139    1.9253333961
H        3.2202327989    1.2199683590   -2.1887604309
H        3.9030026180   -0.6584652583    1.6349052706
H        1.1752219070    0.2780879768   -2.1730508032
H       -0.2745021584   -1.8751145295   -2.2304424211
H       -0.6817439827   -1.1584674992   -0.6302927476
H        1.3717061672   -1.5697800879    1.3030124948
H        2.7723634847   -2.4703545644    0.6118681233
H        0.2993710631   -3.3655498407   -0.0373492772
H        1.5306507221   -3.1470258166   -1.3030912744
23   

C        5.6962070645    1.7478223139    0.0620864533
C        4.8550434545    1.9837230452   -1.0249813442
C        5.3911157254    0.7246723303    0.9594152749
C        3.7135819957    1.1960431672   -1.2138379133
C        4.2489212361   -0.0618333874    0.7685481549
C        3.3840991549    0.1506362763   -0.3256557798
C        1.2362438226   -0.5645618092   -1.4927608006
C        2.1803592564   -0.6780998488   -0.5108310367
C        0.1341318278   -1.5608173882   -1.3100978054
C        1.8152727150   -1.8086268234    0.4413892663
C        0.8636929424   -2.6091437326   -0.4602054166
H        6.5805784119    2.3572514687    0.2100098640
H        5.0852576600    2.7790201454   -1.7247157518
H        6.0389850805    0.5391700105    1.8085563985
H        3.0819222751    1.4068322789   -2.0667235988
H        4.0464698250   -0.8378559471    1.4948384794
H        1.2742229605    0.1373999378   -2.3164184230
H       -0.2324075159   -1.9754603417   -2.2544225008
H       -0.6859808336   -1.1042634756   -0.7461346444
H        1.2868699227   -1.4045249996    1.3108192189
H        2.6676219156   -2.4207507163    0.7506494221
H        0.1904734966   -3.2721858573    0.0923368561
H        1.4764494396   -3.2163726093   -1.1352719371
