25   

C       -0.2394542605   -5.5681374171   -3.7790585656
C        0.0371698388   -4.7721854026   -2.5916559703
C       -0.4762089155   -4.7867473628   -4.8794522992
C       -0.0320743966   -1.0294297032   -1.8552106651
C        0.2404608229   -2.3720519471   -1.8595235012
C       -0.0001617853   -3.4173698093   -2.8393193816
C        0.4367671755   -0.5476013400   -0.5688651585
C       -2.2025692201   -0.3142747051   -2.9222602826
C        0.3307968448    0.8454420745   -0.0217312746
C       -0.6832568544   -0.1624552919   -2.9153015774
N        0.9374678897   -1.5381735817    0.1208474613
N        0.8188893528   -2.6537362351   -0.6506856914
O       -2.7561086002   -0.5384164409   -3.9863031945
O       -2.8670044559   -0.1639155318   -1.7486628348
S       -0.3707744533   -3.0698988982   -4.5109459257
H       -0.2590965251   -6.6526580008   -3.7915475345
H        0.2371220890   -5.2145181439   -1.6235391812
H       -0.7057016183   -5.1694994134   -5.8672813146
H       -0.5539616887    1.3487713538   -0.4195613396
H        0.2574785632    0.8139217840    1.0691785822
H        1.2215025794    1.4166056052   -0.2961437267
H       -0.2779034522   -0.3949026352   -3.9020403435
H       -0.4505386541    0.8884055072   -2.7297405733
H        1.1440010687   -3.5779748974   -0.3797190031
H       -3.8067504706   -0.3117045554   -1.9414171397
25   

C       -0.2555248068   -5.4380138509   -4.0003945235
C       -0.1126029500   -4.6790522557   -2.7661238602
C       -0.1104074948   -4.6471887777   -5.1106667150
C        0.0582133745   -1.0041052664   -1.9074920800
C        0.3398292724   -2.3406023283   -1.9612229066
C        0.1325320198   -3.3438956784   -2.9927386050
C        0.4917198686   -0.5759477984   -0.5902256982
C       -2.1106294853   -0.2647426535   -2.9049896987
C        0.3750194616    0.7945904306    0.0089256234
C       -0.5933416600   -0.1148992640   -2.9450579337
N        0.9684913916   -1.5968541822    0.0732782320
N        0.8747282051   -2.6797696321   -0.7478975860
O       -2.6548032701   -0.9382226552   -3.7645147001
O       -2.7859373120    0.4097596935   -1.9409660201
S        0.2027502305   -2.9659761450   -4.6950898536
H       -0.4583644363   -6.5029336139   -4.0377893193
H       -0.2070204654   -5.1233331592   -1.7824824298
H       -0.1834442978   -5.0033143246   -6.1317548242
H       -0.4737895544    1.3331052050   -0.4195749293
H        0.2349154823    0.7183530254    1.0910149608
H        1.2907061752    1.3590334261   -0.1853660117
H       -0.2231666884   -0.3445453186   -3.9457149569
H       -0.3418339629    0.9308587792   -2.7527647332
H        1.1987817429   -3.6150722326   -0.5141164084
H       -3.7244246257    0.1892807327   -2.0566517141
25   

C       -0.3044382244   -5.3574895405   -4.0030347206
C       -0.2513704125   -4.5822794981   -2.7714652954
C        0.1189662042   -4.6320533292   -5.0876485456
C        0.0848226012   -0.9704016731   -1.8991121368
C        0.3992661791   -2.2969924972   -1.9443949881
C        0.2026457551   -3.3020727775   -2.9789424208
C        0.5154405571   -0.5232345962   -0.5869987943
C       -2.1300354460   -0.2407962185   -2.7812420727
C        0.4159804634    0.8578827003   -0.0094882007
C       -0.6179389644   -0.1331398985   -2.9454595772
N        1.0377500289   -1.5254091510    0.0726071485
N        0.9749828727   -2.6141193461   -0.7450194134
O       -2.7476999488   -0.9814678444   -3.5286024964
O       -2.7200070138    0.5372977353   -1.8396091168
S        0.5926513949   -2.9929134980   -4.6525641157
H       -0.6440418837   -6.3862351650   -4.0573423622
H       -0.5503452688   -4.9692223157   -1.8041725849
H        0.1562445383   -5.0120370099   -6.1020630903
H       -0.4937712803    0.9355530854    0.5919519996
H        1.2767243730    1.0551261877    0.6357568504
H        0.3823581510    1.6120407653   -0.7984774467
H       -0.3356115030   -0.4486217479   -3.9515733369
H       -0.3285500529    0.9155520843   -2.8494245944
H        1.3346421861   -3.5381378301   -0.5166785462
H       -3.6682130632    0.3297542600   -1.8664794247
25   

C       -0.3666271569   -5.3332134222   -4.0360281539
C       -0.3988747927   -4.5441299594   -2.8122416738
C        0.3017807958   -4.6905659237   -5.0482227276
C        0.0442351722   -1.0231702166   -1.8738628593
C        0.4144036417   -2.3321734013   -1.9144152642
C        0.2384271745   -3.3374744119   -2.9568747610
C        0.4981175034   -0.5410580268   -0.5831581907
C       -2.2094498948   -0.3009716305   -2.6522752445
C        0.3599003566    0.8444067467   -0.0254380918
C       -0.7104555491   -0.2429241160   -2.9260148936
N        1.0866597232   -1.5119776429    0.0688421337
N        1.0454399433   -2.6131347011   -0.7350036433
O       -2.8800776258   -1.1284533746   -3.2475366765
O       -2.7308511319    0.6079428090   -1.7910996862
S        0.9110374363   -3.1131745276   -4.5547314065
H       -0.8225744192   -6.3122907292   -4.1366461614
H       -0.8805360381   -4.8651267392   -1.8955818286
H        0.4398483842   -5.0960541535   -6.0438962229
H       -0.5009393262    0.8816668832    0.6474235236
H        1.2562077092    1.1081261242    0.5429863248
H        0.2146791694    1.5752146521   -0.8239242145
H       -0.5081858347   -0.6448825841   -3.9216248367
H       -0.3882329692    0.8010015828   -2.9264550137
H        1.4479185872   -3.5204063529   -0.5098521809
H       -3.6804694532    0.4141571349   -1.7298291554
25   

C       -1.1496602525   -5.0914346633   -4.3680674837
C       -1.3354992570   -4.2762715416   -3.1753014017
C        0.0960862219   -4.9239195403   -4.9210639931
C       -0.0759885715   -1.2525069445   -1.7352221059
C       -0.0727358126   -2.6112370407   -1.7546113880
C       -0.2230728286   -3.5303678158   -2.8823393920
C        0.1252610337   -0.8923095041   -0.3453426071
C       -1.7335300796    0.0929159792   -3.0152871181
C        0.2243160933    0.4883608441    0.2315478028
C       -0.2705112542   -0.3242645680   -2.9108819014
N        0.2315340530   -1.9773493707    0.3801405289
N        0.1138398266   -3.0380588155   -0.4703214631
O       -2.4886325234   -0.5885487289   -3.6895736970
O       -2.1137876039    1.2300008762   -2.3815460387
S        1.0835100374   -3.7768030735   -4.0191036225
H       -1.9108125885   -5.7485022280   -4.7748780316
H       -2.2496833686   -4.2455175897   -2.5929923440
H        0.4410089788   -5.4311328719   -5.8147147996
H       -0.7387965565    0.7730121489    0.6633217734
H        0.9787234214    0.5077482128    1.0230796151
H        0.4939561506    1.2146018776   -0.5384858077
H        0.0325383513   -0.8167488100   -3.8388570852
H        0.3509370710    0.5671115570   -2.7950447184
H        0.1706951615   -4.0181420488   -0.2013910989
H       -3.0662666118    1.3287459772   -2.5434405857
25   

C       -1.1351710610   -4.8979235652   -4.4607101491
C       -1.3161877471   -4.0350757521   -3.3013388831
C        0.1875238049   -5.0333844827   -4.8047376995
C       -0.0451086546   -1.2805773932   -1.7030234098
C        0.0409160556   -2.6362598419   -1.6980115104
C       -0.1225733426   -3.5723850782   -2.8116490179
C        0.1574018013   -0.8807025668   -0.3249483701
C       -1.8032919547   -0.0160060781   -2.9336712362
C        0.1901102409    0.5165398183    0.2182837183
C       -0.3256905896   -0.3923136253   -2.8916651887
N        0.3297992006   -1.9430874364    0.4207646876
N        0.2551344671   -3.0261930215   -0.4066000802
O       -2.6021106922   -0.8308229650   -3.3677400772
O       -2.1532265994    1.2217706324   -2.5046173750
S        1.2566299066   -4.1259307267   -3.7376274757
H       -1.9535407707   -5.3686158445   -4.9948263189
H       -2.2801947750   -3.7605041376   -2.8860846537
H        0.5435113229   -5.6254900973   -5.6399091346
H       -0.7818145604    0.7612522560    0.6547058348
H        0.9508416788    0.5940695568    1.0001380550
H        0.4135873950    1.2365234177   -0.5722935730
H       -0.0584162550   -0.9047453171   -3.8200160126
H        0.2789901616    0.5162720175   -2.8328914392
H        0.3472460254   -3.9974963792   -0.1162345500
H       -3.1193888883    1.2781768633   -2.5862827986
25   

C       -1.1343822403   -4.8317050155   -4.5417045752
C       -1.2992312824   -3.8926095295   -3.4408313231
C        0.1730962304   -5.2194090902   -4.7014495919
C       -0.0618985475   -1.3166614912   -1.7337476402
C        0.0752670196   -2.6694887443   -1.7163071596
C       -0.1133948575   -3.6243547523   -2.8065492069
C        0.1766908866   -0.8916983634   -0.3687324769
C       -1.8781302098   -0.0460308662   -2.8885903914
C        0.1822194160    0.5130818532    0.1558055425
C       -0.4058072450   -0.4448049625   -2.9192281244
N        0.4138760231   -1.9368249044    0.3830359980
N        0.3474586871   -3.0328222863   -0.4275135627
O       -2.7070214090   -0.8403960165   -3.3033014286
O       -2.1901814765    1.1909315427   -2.4295714316
S        1.2461820053   -4.4653622591   -3.5249730045
H       -1.9515072950   -5.1751412036   -5.1669871679
H       -2.2441058104   -3.4370704145   -3.1634266726
H        0.5167298306   -5.9079006456   -5.4648357042
H       -0.7840298781    0.7344172231    0.6166283350
H        0.9620642401    0.6242320124    0.9144157909
H        0.3611537114    1.2285909568   -0.6500816294
H       -0.1958033304   -0.9743973175   -3.8526795559
H        0.2123392497    0.4566405630   -2.9104867471
H        0.4774553574   -3.9966712948   -0.1269055955
H       -3.1577919245    1.2644003786   -2.4723583821
25   

C       -1.1225773115   -4.7940506291   -4.6099131380
C       -1.2790702108   -3.7806876446   -3.5758501519
C        0.1244651893   -5.3670656579   -4.5902207177
C       -0.1239103517   -1.3233177045   -1.7403978516
C        0.0481214302   -2.6742984023   -1.7347131845
C       -0.1481538487   -3.6357111447   -2.8124791643
C        0.1638477539   -0.8973718760   -0.3844280693
C       -1.9811385318   -0.0210042283   -2.8096162362
C        0.1629502824    0.5048555346    0.1473558218
C       -0.5172074160   -0.4417266922   -2.9046853476
N        0.4624543348   -1.9377782966    0.3511907628
N        0.3895953636   -3.0320217950   -0.4603460692
O       -2.8322390538   -0.7623914875   -3.2735689412
O       -2.2607599920    1.1830917148   -2.2532615495
S        1.1479569273   -4.7021112598   -3.3202999035
H       -1.9024467842   -5.0582145302   -5.3161056275
H       -2.1834805760   -3.2013823238   -3.4280403606
H        0.4523399918   -6.1396673976   -5.2761462897
H       -0.7907781123    0.7071563474    0.6417706915
H        0.9662667645    0.6263110171    0.8794518353
H        0.3020754504    1.2273830038   -0.6601167714
H       -0.3522036911   -0.9661830726   -3.8498955716
H        0.1108285333    0.4528061764   -2.9192723842
H        0.5592042452   -3.9926925719   -0.1694459209
H       -3.2273660684    1.2775050349   -2.2734475598
25   

C       -1.0723116127   -4.7318824918   -4.7064211696
C       -1.2054071599   -3.6606339259   -3.7292475981
C        0.0728013568   -5.4638435303   -4.5203988010
C       -0.1526571402   -1.3220138061   -1.7397712229
C        0.0384130219   -2.6726883389   -1.7614108733
C       -0.1577160718   -3.6249228291   -2.8423469620
C        0.1879409475   -0.9110740705   -0.3904789767
C       -2.0466319662   -0.0059060906   -2.7392045818
C        0.1942560690    0.4821607730    0.1651637599
C       -0.5814443600   -0.4134355597   -2.8718836550
N        0.5384236687   -1.9557013070    0.3146764871
N        0.4490549507   -3.0383987112   -0.5094492126
O       -2.8916065779   -0.6748864125   -3.3113501261
O       -2.3324615139    1.1175958759   -2.0369458696
S        1.0243376134   -4.8811960863   -3.1584293583
H       -1.7967474949   -4.9242134676   -5.4906009328
H       -2.0432581498   -2.9747999828   -3.7035833850
H        0.3670712171   -6.3052047200   -5.1372109797
H       -0.7458888376    0.6699138808    0.6903336257
H        1.0179798614    0.5968570241    0.8753729485
H        0.3054609998    1.2196378147   -0.6329452940
H       -0.4247460437   -0.9063490147   -3.8350850295
H        0.0361815265    0.4883267597   -2.8733846149
H        0.6531442229   -3.9989552896   -0.2412190095
H       -3.2986415754    1.2162449486   -2.0575088880
25   

C       -0.9745573382   -4.6716587570   -4.7682107175
C       -1.0817127965   -3.5435138741   -3.8542202225
C        0.0271187658   -5.5357287648   -4.4092336092
C       -0.1920525858   -1.2888785203   -1.7253308255
C        0.0185843682   -2.6392502899   -1.7586590364
C       -0.1543661962   -3.5911959605   -2.8407439155
C        0.1744100832   -0.8782507231   -0.3817116203
C       -2.1211246064   -0.0185833507   -2.7260664123
C        0.1684068222    0.5098870216    0.1877939734
C       -0.6382025812   -0.3639564498   -2.8387955579
N        0.5672364447   -1.9178104946    0.3069948537
N        0.4794530155   -2.9966102015   -0.5210043851
O       -2.9136170824   -0.6147095268   -3.4369918613
O       -2.4782191521    0.9815368261   -1.8838919851
S        0.8702058162   -5.0100136487   -2.9568834712
H       -1.6170727704   -4.8098298931   -5.6312596832
H       -1.8279159604   -2.7673801673   -3.9614013942
H        0.2777767340   -6.4403443043   -4.9512671669
H       -0.7646047680    0.6763946655    0.7324748594
H        1.0034019829    0.6314988373    0.8835654333
H        0.2520819940    1.2582780400   -0.6032057849
H       -0.4346928671   -0.8138722590   -3.8138171618
H       -0.0615632335    0.5634141305   -2.7991608710
H        0.7176500657   -3.9524426588   -0.2643199765
H       -3.4449860310    1.0570428317   -1.9405659895
25   

C       -0.8422329984   -4.6508872600   -4.8157281949
C       -0.8958443819   -3.4759254329   -3.9580940905
C       -0.0297228101   -5.6278038225   -4.3052028119
C       -0.1907411207   -1.2908838950   -1.7053932905
C        0.0450753445   -2.6406706168   -1.7512960624
C       -0.1159560001   -3.5971241929   -2.8306256015
C        0.2407863560   -0.8700548323   -0.3835184944
C       -2.1895976298   -0.1630335508   -2.7660446476
C        0.2087422612    0.5107774134    0.2034457437
C       -0.6734351330   -0.3495643486   -2.7912093444
N        0.6793049867   -1.9004867138    0.2885086480
N        0.5616383153   -2.9819931210   -0.5301132305
O       -2.8462948117   -0.6203101587   -3.6872139873
O       -2.7267388422    0.5572733360   -1.7513393385
S        0.6943266646   -5.1524908094   -2.7749291295
H       -1.3890690239   -4.7402916013   -5.7483532925
H       -1.5110920264   -2.6194266821   -4.1929937917
H        0.1502969811   -6.5849595482   -4.7810331998
H       -0.4998011348    1.1488729786   -0.3285640243
H       -0.0811872239    0.4597887563    1.2566489588
H        1.2046150128    0.9571845270    0.1405105580
H       -0.3538875955   -0.7068136270   -3.7732450585
H       -0.2078541864    0.6300534314   -2.6567328518
H        0.8274511430   -3.9325222483   -0.2810393371
H       -3.6868596515    0.5679849402   -1.8968463522
25   

C       -0.7379676077   -4.6495717203   -4.9994701867
C       -0.6672548980   -3.4507610394   -4.1768334894
C       -0.2095912524   -5.7429932211   -4.3684321830
C       -0.0999802278   -1.3715078434   -1.7886447310
C        0.1230669007   -2.7236446444   -1.8674474981
C       -0.0799948880   -3.6698881101   -2.9498637425
C        0.3598183913   -0.9790599441   -0.4680919820
C       -2.1454085163   -0.3540992383   -2.8607592235
C        0.3126396710    0.3860267486    0.1536625205
C       -0.6198773320   -0.3949403146   -2.8247204425
N        0.8179736241   -2.0215477312    0.1697587324
N        0.6795215568   -3.0844241560   -0.6690756187
O       -2.7125331522   -0.7371739344   -3.8711336457
O       -2.7934238164    0.1606751963   -1.7870455205
S        0.3894535653   -5.3516370482   -2.7632071763
H       -1.1673781129   -4.6708505736   -5.9954369387
H       -1.0634963394   -2.5061913134   -4.5186814959
H       -0.1644872253   -6.7366563333   -4.7991949519
H       -0.4966456033    0.9813936695   -0.2757786220
H        0.1530406021    0.2990109079    1.2321643300
H        1.2629848514    0.8988047532   -0.0167846206
H       -0.2192126986   -0.6357696390   -3.8116258871
H       -0.2608183972    0.6111191257   -2.5951588762
H        0.9538893090   -4.0390887308   -0.4465644865
H       -3.7431053906    0.0986854185   -1.9798293306
25   

C       -0.7955674649   -4.5213381142   -4.9197204991
C       -0.5091708463   -3.3103863832   -4.1644477826
C       -0.6848605577   -5.6495123317   -4.1515997322
C       -0.0479699436   -1.2428991839   -1.7475815551
C        0.1362986170   -2.5998858606   -1.8109688338
C       -0.1963372879   -3.5602435353   -2.8467708235
C        0.4673727736   -0.8443748685   -0.4501371896
C       -2.1500956004   -0.5678183845   -2.9891130779
C        0.4613549120    0.5284435412    0.1554460716
C       -0.6628524408   -0.3019476492   -2.7653338443
N        0.9190539761   -1.8905522143    0.1879873232
N        0.7181172877   -2.9630919081   -0.6264854747
O       -2.5488250117   -0.6499937998   -4.1398625594
O       -2.9564076547   -0.6853571984   -1.9052218261
S       -0.2327103272   -5.2787351269   -2.4934267885
H       -1.0671808071   -4.5250446472   -5.9699776116
H       -0.5408929532   -2.3301566175   -4.6195563585
H       -0.8561648327   -6.6564612110   -4.5144821564
H       -0.4351692636    1.0765661146   -0.1447741479
H        0.4804443085    0.4564777300    1.2468576926
H        1.3458112897    1.0795325923   -0.1748854741
H       -0.1210020984   -0.3749202702   -3.7109919297
H       -0.5571254072    0.7323102201   -2.4316770159
H        0.9632127972   -3.9235456190   -0.3951236958
H       -3.8465769929   -0.8808095527   -2.2392044630
25   

C       -0.7846915284   -4.4262070985   -4.9211178480
C       -0.3473617334   -3.2566310174   -4.1727969225
C       -0.9794375160   -5.5156816387   -4.1120385782
C       -0.0201801609   -1.2073627039   -1.7206964737
C        0.1613939949   -2.5610809937   -1.7944851607
C       -0.2312951121   -3.5034631077   -2.8252391934
C        0.5416692576   -0.8180559845   -0.4401670614
C       -2.1427961067   -0.7532461363   -3.0496925079
C        0.6210860366    0.5615537273    0.1438157927
C       -0.7268447796   -0.2931125118   -2.7039907363
N        1.0270487062   -1.8679098735    0.1693384067
N        0.8019533340   -2.9364345373   -0.6457055590
O       -2.4839676221   -0.7058198902   -4.2208123610
O       -2.9498209659   -1.1888535321   -2.0505850759
S       -0.6409137237   -5.1594570859   -2.4221238179
H       -0.9409421082   -4.4300968625   -5.9946031237
H       -0.1373758351   -2.3013922160   -4.6382007122
H       -1.3067919800   -6.4873935591   -4.4635748977
H       -0.2791776253    0.7607542332    0.7315396193
H        1.4910048945    0.6393279267    0.8023511244
H        0.7056075279    1.3124684063   -0.6451447566
H       -0.1329033949   -0.2155722717   -3.6181558746
H       -0.8062754299    0.7126350892   -2.2864199439
H        1.0612647321   -3.8979178409   -0.4350920287
H       -3.7786659344   -1.4745811246   -2.4666962193
25   

C       -0.7131897260   -4.4174355884   -4.9412008278
C       -0.1882716713   -3.2798390366   -4.1995794562
C       -1.1321747039   -5.4272835214   -4.1123042137
C       -0.0519759458   -1.1804795010   -1.7495017981
C        0.1718113997   -2.5252711840   -1.8187964623
C       -0.2252845715   -3.4783871825   -2.8413467857
C        0.5495129962   -0.7630833298   -0.4966529045
C       -2.1869767870   -0.8869871203   -3.1139539579
C        0.6012323173    0.6229474340    0.0744252854
C       -0.8247765782   -0.3123968301   -2.7248564825
N        1.1047826251   -1.7904248225    0.0935591799
N        0.8860729557   -2.8729405894   -0.7059712785
O       -2.5059848898   -0.8394161142   -4.2913361173
O       -2.9734631179   -1.4185778721   -2.1453546732
S       -0.9040541626   -5.0346939348   -2.4109173784
H       -0.7717272497   -4.4555339741   -6.0237318639
H        0.1794622018   -2.3738349411   -4.6673739386
H       -1.5595162722   -6.3621107167   -4.4564213423
H       -0.2561632814    0.7770406008    0.7352068004
H        1.5173158899    0.7523814322    0.6578890677
H        0.5777406626    1.3714272583   -0.7209939090
H       -0.2245041010   -0.1662398718   -3.6267097792
H       -0.9998556055    0.6722967207   -2.2862528671
H        1.1946084375   -3.8223029662   -0.5069568153
H       -3.7605389040   -1.7710793378   -2.5902630876
25   

C       -0.6553781344   -4.4244847035   -4.9194951991
C       -0.0500985876   -3.3393005540   -4.1603902770
C       -1.2934524109   -5.3304382645   -4.1094876586
C       -0.0851654352   -1.1885578786   -1.7047054507
C        0.1652545316   -2.5261101571   -1.7853742145
C       -0.2430742693   -3.4791156316   -2.8092347801
C        0.5648900266   -0.7592373614   -0.4808649070
C       -2.2339842158   -0.9823966032   -3.0677945673
C        0.6093486726    0.6273008665    0.0891739235
C       -0.9081783948   -0.3418116291   -2.6571581517
N        1.1787203584   -1.7729836704    0.0753113700
N        0.9510404605   -2.8592106317   -0.7174584571
O       -2.5338991798   -0.9569699377   -4.2508776276
O       -3.0145796747   -1.5395437156   -2.1089840172
S       -1.1802111809   -4.9024618420   -2.4046294485
H       -0.6142866421   -4.4996447548   -6.0008592814
H        0.4752410246   -2.5034980872   -4.6086140293
H       -1.8143753543   -6.2101548076   -4.4695381093
H       -0.2069492877    0.7534150302    0.8055226926
H        1.5573429428    0.7858806702    0.6112301151
H        0.5089747674    1.3747534565   -0.7012447435
H       -0.3163996890   -0.1401645358   -3.5541428419
H       -1.1386296159    0.6192348832   -2.1921333385
H        1.2981775470   -3.7998132977   -0.5416483602
H       -3.7746139307   -1.9324514860   -2.5668445598
25   

C        0.3447733498   -4.9054893864   -4.5164016758
C        0.7839158761   -3.9109127921   -3.5472811852
C       -0.9431416606   -5.3199935424   -4.2835836249
C       -0.0651984496   -1.2857775762   -1.6174284076
C       -0.0743647676   -2.6433029655   -1.5445381946
C       -0.1865183346   -3.6273783162   -2.6204938810
C        0.0865234424   -0.8327896116   -0.2483335161
C       -1.6643989749   -0.0317087229   -3.0600368869
C        0.1711983493    0.5830710865    0.2386329675
C       -0.2078728612   -0.4374978482   -2.8597993372
N        0.1604222273   -1.8664578258    0.5519807883
N        0.0607877156   -2.9818403793   -0.2278357444
O       -2.3550353441   -0.6922175069   -3.8185125284
O       -2.1049505230    1.0804303915   -2.4207790496
S       -1.6624047406   -4.5246226429   -2.8858655048
H        0.9612375764   -5.2699502756   -5.3310587201
H        1.7591734829   -3.4374117812   -3.5569891539
H       -1.4699912815   -6.0492909789   -4.8880690737
H       -0.8070647015    0.8989609133    0.6106836511
H        0.8927421907    0.6529625547    1.0574351677
H        0.4754907743    1.2555024052   -0.5664623086
H        0.1381775379   -0.9887008576   -3.7383631218
H        0.4052903292    0.4628719549   -2.7745357858
H        0.0760537696   -3.9415366704    0.1113843089
H       -3.0442434701    1.1738074589   -2.6494814224
25   

C        0.4226285918   -5.0569382019   -4.4138531010
C        0.8776301011   -4.0990863163   -3.4153909153
C       -0.9374604143   -5.2395937497   -4.3719159841
C       -0.0961126025   -1.2652180199   -1.6427976282
C       -0.0346463348   -2.6213253610   -1.5858038933
C       -0.1577080707   -3.6046496031   -2.6641894282
C        0.0887819882   -0.8197981966   -0.2754141543
C       -1.7898164287   -0.0315027199   -2.9977241027
C        0.1312570605    0.5939664372    0.2226950043
C       -0.3189922900   -0.4150540432   -2.8717292418
N        0.2410035111   -1.8572824037    0.5092853089
N        0.1620425807   -2.9684091474   -0.2791674586
O       -2.5100272664   -0.7078274257   -3.7135563354
O       -2.2119386341    1.0801791283   -2.3454335703
S       -1.7084757157   -4.2621263553   -3.1254285048
H        1.0810877295   -5.5627550553   -5.1118193261
H        1.9115671726   -3.8017261473   -3.2808206931
H       -1.4869137189   -5.9035607116   -5.0292740278
H       -0.8451726163    0.8649677959    0.6329180847
H        0.8787771552    0.6875626073    1.0154103331
H        0.3772972786    1.2851225569   -0.5865421768
H       -0.0083534062   -0.9583514351   -3.7686341510
H        0.2837742206    0.4945712227   -2.8136901089
H        0.2253347891   -3.9300751067    0.0486606416
H       -3.1625636722    1.1600175973   -2.5277069219
25   

C        0.4695757821   -5.1489300807   -4.3321026902
C        0.9379915330   -4.2419762925   -3.2931324020
C       -0.8892583854   -5.0711616837   -4.5110067096
C       -0.0613181079   -1.1993717431   -1.6508967991
C        0.0518342948   -2.5536687109   -1.6459483201
C       -0.0855882678   -3.5146572122   -2.7404103529
C        0.1522352266   -0.7975989434   -0.2740813868
C       -1.8047703210    0.1400994354   -2.8445487378
C        0.1730417374    0.5989345986    0.2715802731
C       -0.3463745203   -0.3079349070   -2.8373821683
N        0.3598180342   -1.8566619057    0.4680338693
N        0.2913629935   -2.9412066502   -0.3573677540
O       -2.6261660586   -0.5546457590   -3.4197509739
O       -2.1072620602    1.3216574041   -2.2518266177
S       -1.6426438955   -3.8998472989   -3.4323913240
H        1.1187285390   -5.8081999757   -4.8983206363
H        1.9743067972   -4.1482942972   -2.9884062701
H       -1.4471140915   -5.6564949044   -5.2328717947
H       -0.7947012781    0.8275163109    0.7257712269
H        0.9464738417    0.6873341875    1.0396822242
H        0.3704174148    1.3236195643   -0.5217111927
H       -0.1280555144   -0.8376226942   -3.7689297001
H        0.2989719137    0.5735620307   -2.8038286267
H        0.3811764630   -3.9118507926   -0.0642899789
H       -3.0669049662    1.4372700971   -2.3478140291
25   

C        0.4826296844   -5.3084153315   -4.2436084820
C        0.9177361125   -4.4135037808   -3.1801207089
C       -0.8154494180   -5.0701244490   -4.6198518598
C       -0.1436386674   -1.2049341598   -1.7325191733
C        0.0481074229   -2.5516228068   -1.7314263656
C       -0.0657976036   -3.5310813951   -2.8070151948
C        0.1038521929   -0.7878724025   -0.3656103122
C       -1.9782995426    0.0967536008   -2.8384632423
C        0.0757558228    0.6098620154    0.1768722878
C       -0.5127602860   -0.3236119994   -2.9041489750
N        0.4021984456   -1.8306970583    0.3681815189
N        0.3619426056   -2.9196159270   -0.4526763577
O       -2.8173331838   -0.6276821261   -3.3475468881
O       -2.2703645793    1.2877079315   -2.2597808492
S       -1.5489598600   -3.7569852149   -3.7037401660
H        1.1108206340   -6.0741203868   -4.6860461329
H        1.9055950508   -4.4382885648   -2.7341151311
H       -1.3407399676   -5.6191274197   -5.3928902590
H       -0.8913091859    0.7983985886    0.6503575185
H        0.8606693610    0.7341068701    0.9282251034
H        0.2258104876    1.3397383116   -0.6220457094
H       -0.3303466273   -0.8491821330   -3.8455028697
H        0.1153323294    0.5709758704   -2.9057366621
H        0.5116668940   -3.8827989309   -0.1599998635
H       -3.2358913184    1.3835321807   -2.3059638145
25   

C        0.4289959425   -5.3835418494   -4.1580138004
C        0.8319369245   -4.5309443961   -3.0482790944
C       -0.7595065629   -4.9813987081   -4.7124255726
C       -0.1695538644   -1.1865964554   -1.7345985186
C        0.0471562907   -2.5318163785   -1.7475490235
C       -0.0642518194   -3.5151654338   -2.8149111295
C        0.1262528511   -0.7696866795   -0.3766757013
C       -2.0532921715    0.1034439684   -2.7759923301
C        0.0955239805    0.6245175235    0.1755289671
C       -0.5823436160   -0.2899309246   -2.8809022187
N        0.4781597277   -1.8076754340    0.3389812254
N        0.4271625913   -2.8934135373   -0.4843544963
O       -2.8904913409   -0.6200538824   -3.2892556833
O       -2.3530492362    1.2734380330   -2.1598060344
S       -1.4246197594   -3.5612485323   -3.9121438484
H        1.0016391025   -6.2365736628   -4.5060282608
H        1.7416942555   -4.6783018389   -2.4777235881
H       -1.2438936452   -5.4721109444   -5.5487784966
H       -0.8577534395    0.7956089952    0.6823541369
H        0.9034264593    0.7563374183    0.9008085574
H        0.2079134256    1.3620689517   -0.6224159903
H       -0.4065283823   -0.7882678667   -3.8376707257
H        0.0281435894    0.6166858089   -2.8774918787
H        0.6075951520   -3.8533741474   -0.1993935435
H       -3.3206604021    1.3547107443   -2.1856788558
25   

C        0.3499866501   -5.5242430111   -4.0281322495
C        0.7156299875   -4.7020681489   -2.8833153597
C       -0.6915301744   -4.9853380665   -4.7381248340
C       -0.1709562228   -1.2278034692   -1.7090056863
C        0.0586208840   -2.5741769656   -1.7235764376
C       -0.0622613307   -3.5717850708   -2.7735952807
C        0.1842474796   -0.7975560550   -0.3684257328
C       -2.1185002469   -0.0141094021   -2.7294780886
C        0.1622640974    0.5973242989    0.1839637068
C       -0.6276456925   -0.3233464432   -2.8341770235
N        0.5869659422   -1.8244131198    0.3348427912
N        0.5128497887   -2.9150700743   -0.4784448804
O       -2.8989674451   -0.6568448836   -3.4118701048
O       -2.4966880595    1.0093053468   -1.9242451792
S       -1.2585428709   -3.4707282767   -4.0443674109
H        0.8447475641   -6.4533074928   -4.2903570157
H        1.5234341436   -4.9541374351   -2.2065938285
H       -1.1244969337   -5.4299255623   -5.6268316169
H       -0.7720493460    0.7595397070    0.7276706372
H        0.9966044646    0.7374130231    0.8770736637
H        0.2362414495    1.3368637757   -0.6162693696
H       -0.4109475535   -0.7762415403   -3.8044643105
H       -0.0727458780    0.6172872122   -2.8000551251
H        0.7255568870   -3.8681220585   -0.1939178543
H       -3.4651592605    1.0568522287   -1.9799315521
25   

C        0.2483370467   -5.5580699845   -3.9438294457
C        0.5597996328   -4.7613142596   -2.7656147882
C       -0.5826573879   -4.8959809589   -4.8088590202
C       -0.1655701113   -1.1641784900   -1.7355226725
C        0.0805820470   -2.5119024531   -1.7486288515
C       -0.0484109165   -3.5247645405   -2.7823181867
C        0.2565600830   -0.7126325680   -0.4206927123
C       -2.1823133412   -0.0900730950   -2.8010810538
C        0.2196122145    0.6811457399    0.1344916027
C       -0.6641900216   -0.2516739537   -2.8384339267
N        0.6918598363   -1.7269031627    0.2787659768
N        0.5803054097   -2.8282187828   -0.5133892106
O       -2.8507638349   -0.6446091164   -3.6575480004
O       -2.7094582208    0.7228147370   -1.8522769413
S       -1.0115589043   -3.2936300283   -4.2235161091
H        0.6313465624   -6.5577760451   -4.1187603675
H        1.2142558614   -5.1135146412   -1.9778608729
H       -0.9409518963   -5.3005997585   -5.7484438446
H       -0.4890078171    1.3051806433   -0.4138241285
H       -0.0727718596    0.6537296147    1.1878841552
H        1.2145426712    1.1284966633    0.0636493708
H       -0.3516748072   -0.6230416205   -3.8168747940
H       -0.2111717902    0.7367049202   -2.7279366186
H        0.8162822653   -3.7734648905   -0.2229345896
H       -3.6720841894    0.7036464439   -1.9782100642
25   

C       -0.0648612520   -5.5860442663   -3.8258174663
C        0.2704506500   -4.7888433442   -2.6543593080
C       -0.6406840020   -4.8328146583   -4.8148301627
C       -0.1093276545   -1.0691088921   -1.8209780950
C        0.1480848970   -2.4163602019   -1.8128005747
C       -0.0644025025   -3.4598964839   -2.8006841530
C        0.3577095680   -0.5803295271   -0.5365143069
C       -2.2259557125   -0.2022178915   -2.9028543395
C        0.2743362510    0.8205816999   -0.0054736981
C       -0.6986638489   -0.1858311970   -2.9045403479
N        0.8473959252   -1.5685533617    0.1632241071
N        0.7210570988   -2.6890629221   -0.5991937953
O       -2.8016592068   -0.3416790477   -3.9696039492
O       -2.8701064725   -0.0368769456   -1.7201177624
S       -0.7934678379   -3.1411661547   -4.3581899463
H        0.1194975853   -6.6519431957   -3.9072173961
H        0.7346319116   -5.2142253262   -1.7734963417
H       -0.9688620874   -5.2219427099   -5.7718525709
H       -0.5742725551    1.3505962784   -0.4449385191
H        0.1537452103    0.8009598476    1.0814274453
H        1.1952840061    1.3587925632   -0.2445717113
H       -0.3208573344   -0.4825924159   -3.8851662061
H       -0.3738948280    0.8463314055   -2.7551828054
H        1.0139780675   -3.6171752789   -0.3065508038
H       -3.8199846589   -0.0928823220   -1.9117352230
