28

C     -0.41321   -0.07922   -9.20701
C     -1.61119   -0.47925   -8.60818
C      0.66641    0.32998   -8.42122
C     -0.64273   -0.08447   -6.37223
C     -1.69780   -0.46597   -7.22327
C      0.52024    0.32224   -7.04051
C      3.50869   -2.02407   -1.03977
C      4.11077   -1.98880   -2.38236
C      1.89272   -1.26510   -3.03671
C     -0.88467   -0.07957   -4.90918
C      4.38137   -2.44469    0.10457
N      2.26226   -1.70596   -0.81520
N      1.41512   -1.31629   -1.82409
N     -0.14368   -0.43788   -3.91982
N      3.19309   -1.58094   -3.35305
N      1.10694   -0.91414   -4.12317
O      5.26891   -2.26952   -2.67421
F     -2.86030   -0.84907   -6.64901
F      1.57904    0.75742   -6.29332
H     -0.32316   -0.07983  -10.28882
H     -2.46772   -0.79889   -9.19248
H      1.60161    0.66606   -8.85678
H     -1.88656    0.21747   -4.61030
H      5.24714   -1.77985    0.19288
H      4.77613   -3.45243   -0.06283
H      3.80391   -2.42357    1.02981
H      3.54677   -1.53424   -4.30588
H      1.58237   -0.74596   -5.00510
