33

C      5.34098    1.37645    2.68813
C      5.47608    2.56028    1.95380
C      5.20528    0.15756    2.02393
C      2.36450   -2.71255    1.34650
C      1.13338   -2.51555    1.96131
C      5.49796    2.51271    0.55706
C      2.33876   -0.41722    0.58152
C      1.08907   -0.21163    1.15856
C      3.00275   -1.65317    0.68613
C      5.20667    0.10539    0.62226
C      0.48151   -1.27170    1.87826
C      5.38173    1.29260   -0.11499
C      0.38860    1.11961    1.03437
C      6.42689    0.67142   -2.16238
N      4.24083   -1.97494    0.05460
N      5.19293   -1.16166   -0.05248
N     -0.73555   -1.06788    2.53680
O      5.32308    1.30821   -1.49179
H      5.33546    1.40160    3.77442
H      5.57213    3.51471    2.46432
H      5.08566   -0.76609    2.58280
H      2.85525   -3.68122    1.37887
H      0.65741   -3.33443    2.49693
H      5.59867    3.41621   -0.03799
H      2.79066    0.39192    0.01927
H     -0.56903    1.03050    0.50281
H      0.17749    1.55173    2.02008
H      1.00207    1.83383    0.48076
H      6.24090    0.79875   -3.23055
H      6.47963   -0.39188   -1.91406
H      7.36802    1.16566   -1.89185
H     -1.23901   -1.91733    2.76459
H     -1.34457   -0.37246    2.12285
