23

C      1.75391   -1.45838   -0.25051
C      0.69240   -0.88787    0.46116
C      1.89925   -1.26010    2.52760
C      2.96540   -1.82335    1.82443
C      2.87529   -1.91189    0.42831
C      0.75987   -0.78332    1.85771
C      5.66678   -0.50388    2.04215
C     -1.82195    0.32941    1.67940
C      4.93932   -1.35572    3.07456
O      4.06706   -2.33260    2.46500
F      3.90849   -2.44452   -0.26781
S     -0.51959   -0.08355    2.88057
H      1.71862   -1.54558   -1.33247
H     -0.17244   -0.53477   -0.08826
H      1.96093   -1.21390    3.61200
H      6.23155   -1.13613    1.35159
H      4.96294    0.10033    1.46140
H      6.36190    0.17712    2.54576
H     -2.64304    0.74765    2.26604
H     -2.18075   -0.56006    1.15538
H     -1.48516    1.08155    0.96152
H      4.36343   -0.72736    3.76595
H      5.64304   -1.95081    3.66126
