35

C     -0.96462   -0.99185   -1.76409
C      0.31620   -0.50488   -2.08418
C     -2.92974   -7.69637   -5.59477
C     -2.80766   -6.69747   -7.79120
C     -1.50445   -2.09125   -2.43139
C     -1.57720   -7.41847   -5.38280
C     -1.45802   -6.41577   -7.60197
C     -3.56302   -7.34121   -6.79366
C      1.10501   -1.09194   -3.07581
C      0.56358   -2.20208   -3.75472
C     -0.72701   -2.68177   -3.43124
C     -0.85929   -6.77620   -6.39051
C      0.48634   -3.88912   -5.18460
C     -5.02196   -7.65113   -7.02679
C      2.48217   -0.58716   -3.42167
N      1.22531   -2.91875   -4.74750
N      0.87183   -4.69583   -6.26056
O      1.66141   -6.82675   -7.29456
O      1.22410   -6.85011   -4.77962
S     -1.12047   -4.05570   -4.45460
S      0.86975   -6.42345   -6.13241
H     -1.54304   -0.50368   -0.98444
H      0.70600    0.35268   -1.54115
H     -3.49839   -8.19241   -4.81235
H     -3.28520   -6.41437   -8.72632
H     -2.49280   -2.46687   -2.18340
H     -1.08526   -7.67762   -4.45106
H     -0.87731   -5.91881   -8.37281
H     -5.13404   -8.44765   -7.77135
H     -5.51452   -7.98024   -6.10840
H     -5.55647   -6.77413   -7.40565
H      3.23377   -1.36827   -3.26826
H      2.53975   -0.29725   -4.47587
H      2.74810    0.27746   -2.80802
H      1.77608   -4.40272   -6.63574
