40

C      0.78076   -1.21434    2.11133
C     -0.06591   -1.15785    0.99726
C      1.58390   -2.33693    2.31078
C     -0.09256   -2.22373    0.09890
C      0.97994   -7.46634   -6.14626
C      0.85370   -6.78619   -4.93706
C      2.39789   -8.30642   -3.78400
C      1.56709   -3.41163    1.40902
C      0.72176   -3.34869    0.29220
C      1.82541   -8.57858   -6.17745
C      1.54618   -7.18831   -3.76613
C      2.49758   -8.95462   -5.00669
C      2.99449  -10.30422   -6.65028
C      1.83607   -6.59198   -1.33886
C      2.42039   -4.63884    1.63153
C      0.66938   -4.45548   -0.74745
C      1.77376   -5.86246    0.99016
C      3.68742  -11.46818   -7.26373
N      2.17188   -9.46841   -7.20395
N      1.51363   -5.60033   -0.42570
N      1.33013   -6.39721   -2.61695
O      2.52891   -7.56556   -1.03574
O      3.25272  -10.06804   -5.30806
H      0.80679   -0.39179    2.82124
H     -0.70168   -0.29176    0.83391
H      2.23355   -2.38955    3.18211
H     -0.75301   -2.18241   -0.76594
H      0.44108   -7.14342   -7.03169
H      0.20260   -5.91543   -4.88751
H      2.92423   -8.62725   -2.89663
H      3.41651   -4.49381    1.19516
H      2.55904   -4.81223    2.70409
H     -0.38174   -4.76074   -0.88396
H      1.00998   -4.01758   -1.69360
H      2.42223   -6.73476    1.04398
H      0.83108   -6.10051    1.50439
H      4.77388  -11.35319   -7.19162
H      3.41682  -12.39513   -6.74764
H      3.40044  -11.54146   -8.31297
H      0.68071   -5.63831   -2.75744
