27

C      1.46530   -1.78718   -2.40777
C      1.56485   -1.57893   -1.21692
C      0.94550   -0.16661    2.18100
C      0.82456   -0.40077    0.81146
C      1.90474   -0.84388    2.93192
C      2.64913   -2.01851    0.93979
C      5.92022   -3.00724    4.97856
C      6.00438   -5.15135    3.91542
C      1.67897   -1.32881    0.18942
C      5.50485   -3.84250    3.93573
C      2.76072   -1.77252    2.31417
C      6.78435   -3.50365    5.95269
C      7.20494   -4.84263    5.84368
C      4.59955   -3.41364    2.81525
N      6.82425   -5.63390    4.85277
N      3.71701   -2.40836    3.13964
O      4.66687   -3.94920    1.71252
Cl     7.31321   -2.45871    7.24093
Cl     8.27909   -5.53393    7.03148
H      1.38143   -1.97488   -3.45729
H      0.28967    0.54803    2.67020
H      0.07999    0.12289    0.22054
H      1.99093   -0.65225    3.99994
H      3.29829   -2.73656    0.45972
H      5.61953   -1.96495    5.03356
H      5.72541   -5.82324    3.10873
H      3.66614   -2.15178    4.11672
