21

C      1.86290   -0.86706   -0.01593
C      1.84096   -1.31983    2.74505
C      0.75739   -0.42440    0.73491
C      2.91386   -1.53169    0.58708
C      0.78729   -0.66301    2.11419
C      2.90301   -1.75953    1.96706
C     -0.33444    0.28646   -0.02123
C     -2.85659    0.47935   -0.45906
C     -2.47000    1.66684    0.35772
C     -1.70903    0.34683    0.53874
O     -0.06898    0.77833   -1.11612
F      3.96258   -1.96685   -0.13991
F     -0.21564   -0.22418    2.91421
F      3.93340   -2.40322    2.54006
H      1.87919   -0.67540   -1.08392
H      1.83659   -1.47724    3.81823
H     -3.77025   -0.05179   -0.21080
H     -2.57261    0.47776   -1.50604
H     -1.92003    2.45933   -0.13908
H     -3.10466    1.97287    1.18330
H     -1.90510   -0.20334    1.44838
