37

C      5.53132   -4.85670    1.13717
C      5.39556   -3.73722    1.96937
C      4.43675   -5.35734    0.42111
C     -2.89934   -8.67131   -4.33844
C     -1.70604   -9.36818   -4.52434
C      4.15810   -3.09217    2.10378
C     -1.78734   -7.16553   -2.84055
C      3.20278   -4.71590    0.55384
C     -0.57498   -7.86247   -3.02076
C     -2.95766   -7.55240   -3.48944
C     -0.52330   -8.98584   -3.87683
C      3.08995   -3.60512    1.38600
C      1.87790   -5.01168   -0.07107
C      0.62664   -7.41457   -2.31395
C     -4.24993   -6.79202   -3.30140
C      0.74735   -9.77564   -4.11004
N      0.87046   -4.24481    0.22667
N      0.60475   -6.39459   -1.52804
N      1.78297   -6.06848   -0.92321
O      0.72544   -3.24478    2.61005
O      1.30361   -1.73091    0.66805
S      1.37274   -3.04102    1.31447
H      6.49824   -5.34308    1.04584
H      6.25806   -3.36588    2.51556
H      4.57024   -6.22727   -0.21742
H     -3.79755   -8.99973   -4.85762
H     -1.69105  -10.23075   -5.18656
H      4.03977   -2.22403    2.74517
H     -1.78980   -6.30782   -2.17427
H      1.55505   -7.97750   -2.47419
H     -5.07122   -7.46618   -3.03574
H     -4.15962   -6.04142   -2.51219
H     -4.53827   -6.27457   -4.22370
H      1.54227   -9.15702   -4.54215
H      1.13551  -10.21286   -3.18294
H      0.56308  -10.59878   -4.80458
H      2.61602   -6.62520   -1.10630
