33

C      6.19253    0.16165    3.13194
C      5.58184    1.40934    2.98876
C      5.98127   -0.82052    2.16037
C      1.58946   -1.50624   -0.69052
C      0.33185   -1.09076   -0.26832
C      4.77712    1.68006    1.87473
C      2.37392   -1.42358    1.59449
C      1.10879   -1.04719    2.04212
C      2.63895   -1.62997    0.22979
C      5.12812   -0.58844    1.07802
C      0.07533   -0.84946    1.09371
C      4.55577    0.69368    0.90776
C      0.83296   -0.85587    3.51380
C      2.92813    1.99205   -0.26948
N      3.88752   -2.05876   -0.30544
N      4.99870   -1.64306    0.11126
N     -1.21603   -0.51140    1.52005
O      3.81529    0.88003   -0.22294
H      6.83400   -0.04382    3.98415
H      5.74207    2.18657    3.73126
H      6.45022   -1.79783    2.23946
H      1.78767   -1.71021   -1.73870
H     -0.47159   -0.97156   -0.99272
H      4.33190    2.66292    1.76437
H      3.15892   -1.57769    2.32648
H      0.55006    0.18071    3.74522
H      0.01423   -1.50086    3.85496
H      1.71818   -1.08650    4.11082
H      2.33078    1.85615   -1.17172
H      3.47390    2.94148   -0.33467
H      2.26779    2.00150    0.60587
H     -1.80824   -0.12076    0.79653
H     -1.26295    0.03317    2.37277
