21

C      2.03478   -1.11004    0.26289
C      2.84592   -1.49678    2.53544
C      0.87677   -0.48979    0.76460
C      0.74985   -0.33028    2.17158
C      2.98903   -1.59246    1.14951
C      1.72293   -0.85065    3.04213
C     -0.04568    0.22744   -1.45359
C     -1.32906    0.78694   -2.03927
N     -0.12740   -0.02388   -0.08702
N     -0.38270    0.43213    2.70357
O     -0.16260    1.27192    3.57098
O      0.96306    0.04761   -2.12136
O     -1.51107    0.20099    2.22524
Br     4.54504   -2.45114    0.45243
Br     1.53678   -0.81484    4.94055
H      2.16281   -1.19944   -0.80579
H      3.58516   -1.91819    3.20536
H     -1.31155    1.87896   -1.95558
H     -2.22482    0.42032   -1.53007
H     -1.37348    0.52614   -3.09695
H     -1.02283    0.14399    0.35991
