37

C     -2.20743   -5.24908    0.04916
C     -1.12658   -0.52181   -0.36449
C     -1.21081   -4.31223   -0.21675
C     -0.62857   -1.81172   -0.43819
C     -3.54812   -4.87867    0.34711
C     -2.49448   -0.21580   -0.06217
C     -1.50293   -2.91908   -0.20131
C     -2.83454   -2.59787    0.09225
C     -3.84750   -3.52943    0.36399
C     -3.34030   -1.27913    0.16105
C     -5.17246    0.57433    1.84896
C     -4.59443    1.07021    3.84998
C     -5.09087   -2.74026    0.63123
C     -3.21971   -0.20272    5.50072
C     -5.61757    0.46625    6.05015
C     -5.61435   -0.28041    0.70515
C     -4.32682    0.85022    5.30261
N     -4.81596    1.81969    1.82729
N     -4.44253    2.14808    3.14198
N     -4.70701   -1.38507    0.47282
O     -6.21812   -3.11101    0.92413
O     -5.06085    0.02182    3.09409
H     -1.95175   -6.30516    0.03000
H     -0.45284    0.31227   -0.54181
H     -0.20130   -4.65192   -0.43667
H      0.41942   -1.97999   -0.67156
H     -4.30150   -5.63370    0.55311
H     -2.82339    0.81715   -0.00623
H     -3.53603   -1.17837    5.11894
H     -2.99519   -0.31054    6.56647
H     -2.29987    0.08658    4.98370
H     -6.01142   -0.48744    5.68537
H     -6.39145    1.22935    5.92373
H     -5.41080    0.36204    7.11983
H     -6.59592   -0.71945    0.90576
H     -5.68696    0.36296   -0.17675
H     -3.97194    1.81619    5.67460
