42

C     -2.31872    8.57680   -7.79486
C     -2.19606    7.49249   -8.67022
C     -2.05618    8.39803   -6.43209
C      2.78270   -0.04956   -1.06037
C     -1.81261    6.23676   -8.19554
C     -1.67324    7.14928   -5.94002
C      1.76665   -0.77824   -0.44722
C      0.16820    0.26535   -1.96188
C      2.53367    0.84205   -2.11315
C     -1.55331    6.07616   -6.83011
C      1.20707    0.99766   -2.56240
C      0.47067   -0.59850   -0.92364
C     -0.52771    3.29786   -5.00914
C     -0.67565    2.74127   -6.30719
C     -0.23688    2.61502   -3.70872
C      3.69654    1.58168   -2.74737
C      3.23615    2.67468   -3.71230
C      2.06796    2.15346   -4.54804
C     -0.45515    1.33866   -6.77880
N     -0.84851    4.59462   -5.05690
N     -1.08289    3.71589   -7.12558
N     -1.16245    4.80080   -6.33741
N      0.92564    1.85335   -3.67124
O     -1.03530    2.68791   -2.78198
F     -0.54092   -1.30377   -0.35212
H     -2.61771    9.55140   -8.17058
H     -2.39928    7.62115   -9.72988
H     -2.15192    9.23355   -5.74408
H      3.80583   -0.16895   -0.71074
H     -1.71503    5.38801   -8.86220
H     -1.47173    6.99558   -4.88631
H      1.95953   -1.46250    0.37274
H     -0.85904    0.37488   -2.28217
H      4.33360    2.00633   -1.96428
H      4.31892    0.85885   -3.29131
H      2.90293    3.56251   -3.16379
H      4.05718    2.98030   -4.36908
H      1.76229    2.89363   -5.28424
H      2.35866    1.24017   -5.08157
H     -0.77878    0.61730   -6.02396
H     -1.01263    1.16075   -7.70072
H      0.60483    1.15021   -6.98205
