45

C     -1.47446    0.57070   -3.59238
C      0.25471   -0.65961   -4.26805
C     -0.55523   -0.42034   -3.15965
C      0.47041   -1.94645   -1.55094
C      0.98375   -1.19166    1.99515
C      0.37542   -2.40859   -0.09708
C      0.02155    1.15119    0.20107
C     -1.09444    2.19635    0.31646
C     -1.41728   -0.64867   -0.82747
C     -1.76249    0.14106    1.51105
C     -0.68967   -0.20052    0.45114
C      1.90941   -2.34838    2.33928
C      0.26781    0.23493   -6.62609
C     -4.47946    1.68344   -0.09660
N     -1.24952    0.91576   -4.86441
N     -0.19772    0.16814   -5.25089
N     -0.47236   -1.00980   -1.88082
N      0.22536   -1.29040    0.84390
N     -2.05844    1.55977    1.23951
O      1.31061   -2.39979   -2.32469
O      0.91288   -0.20752    2.73149
O     -3.47544    3.62441    1.37647
O     -4.21537    1.44476    2.51672
S     -3.58861    2.16582    1.40785
H     -2.28137    1.05179   -3.05578
H      1.08480   -1.33370   -4.39974
H     -0.45960   -3.11788   -0.00166
H      1.29129   -2.95450    0.10015
H      0.51318    1.17751   -0.77448
H      0.76531    1.30813    0.98001
H     -0.74683    3.14436    0.72926
H     -1.55197    2.40561   -0.66006
H     -2.08125   -1.49423   -0.61089
H     -2.04609    0.16671   -1.17192
H     -2.65480   -0.48342    1.40262
H     -1.37625    0.02334    2.52138
H      2.74726   -2.41103    1.63686
H      1.39338   -3.31302    2.33933
H      2.30630   -2.15388    3.33528
H     -0.36356   -0.37652   -7.27813
H      0.23029    1.27316   -6.95864
H      1.29633   -0.12708   -6.67339
H     -5.49179    2.08269   -0.01159
H     -3.98108    2.12177   -0.96313
H     -4.51148    0.59429   -0.15786
