21

C      2.04789   -0.90562   -0.20636
C      0.91129   -0.61804    0.54247
C      3.15236   -1.71774    1.77456
C      2.01994   -1.43970    2.55869
C      3.18489   -1.46221    0.40358
C      0.90628   -0.88508    1.91123
C      2.11443   -1.77189    4.01384
C      1.08108   -1.72242    6.12984
C      4.40367   -1.77407   -0.39884
O      3.09086   -2.31117    4.50773
O      1.02549   -1.41690    4.72029
F     -0.22305   -0.59286    2.58521
Br     5.55414   -0.14924   -0.65880
H      2.05732   -0.68914   -1.27168
H      0.02239   -0.19066    0.08917
H      4.01393   -2.14305    2.28053
H      0.13211   -1.37338    6.53574
H      1.91880   -1.20154    6.59892
H      1.19546   -2.79817    6.28128
H      4.17268   -2.10041   -1.41111
H      5.05451   -2.49673    0.08863
