22   

C        1.8248828476   -0.2121662484    0.1148658633
C        0.5379470767   -0.4647970667    0.5829363039
C        2.9238848750   -0.4465867779    0.9438792425
C        0.3549000583   -0.9564638472    1.8761669280
C        2.7602446371   -0.9282505904    2.2537354472
C        1.4486030496   -1.1953777040    2.7263996392
C        3.9531985060   -1.1290921218    3.0993932345
C        5.2694877430   -0.8026800157    2.8750549637
C        1.1965873829   -1.7555929928    4.1062545294
C        6.3746217888   -1.6108833429    2.2243155503
H        1.9733982906    0.1683535792   -0.8891568423
H       -0.3191150978   -0.2827029263   -0.0554251342
H        3.9191017791   -0.2409381663    0.5679798968
H       -0.6528908449   -1.1552552437    2.2218561012
H        3.7263840852   -1.2972992855    4.1443396265
H        5.7071074758   -0.3760459195    3.7714239735
H        1.7808535572   -2.6690588921    4.2547550279
H        1.4749562835   -1.0210670586    4.8678665032
H        0.1401396651   -2.0062565995    4.2406425373
H        7.1789192392   -1.8079308244    2.9396542959
H        5.9808418744   -2.5673948099    1.8673886829
H        6.7859284224   -1.0617548237    1.3724204270
22   

C        1.9195372210   -0.2860677848    0.1157437305
C        0.6179738696   -0.5043750644    0.5594833427
C        2.9930244279   -0.4848916061    0.9864188935
C        0.3947322739   -0.9256818173    1.8709112553
C        2.7888643338   -0.8920198415    2.3165916628
C        1.4619654430   -1.1244651961    2.7639513455
C        3.9509288606   -1.0579426601    3.2115149556
C        5.2683485942   -0.7942056483    2.9670551580
C        1.1680474572   -1.6252961618    4.1582541677
C        6.2419611261   -1.5944965357    2.1295795955
H        2.0992194277    0.0408987832   -0.9019523567
H       -0.2191687657   -0.3514740545   -0.1121087946
H        3.9982511214   -0.3033085330    0.6259912400
H       -0.6236217906   -1.1034780433    2.1964838281
H        3.7000195804   -1.1350302262    4.2618594749
H        5.7846570771   -0.4505011519    3.8570425782
H        1.7621794970   -2.5198068775    4.3702819712
H        1.4043477744   -0.8518763847    4.8949386308
H        0.1123089482   -1.8922651264    4.2639735975
H        7.0958048587   -1.9114281631    2.7360247006
H        5.7496895825   -2.4842242468    1.7249175344
H        6.6064391491   -0.9858358375    1.2969833140
22   

C        1.9927580762   -0.3619954840    0.1189148965
C        0.6818459543   -0.5518841841    0.5465564628
C        3.0474268018   -0.5123109071    1.0216407215
C        0.4303493353   -0.8946647662    1.8752171503
C        2.8154364435   -0.8377613234    2.3709119676
C        1.4779258379   -1.0394562769    2.8012759818
C        3.9496860461   -0.9540397934    3.3096488035
C        5.2718480682   -0.8033437466    3.0405424708
C        1.1545090789   -1.4750181945    4.2108558144
C        6.1010109956   -1.6096942927    2.0681300118
H        2.1944482432   -0.0929138396   -0.9115197760
H       -0.1403983338   -0.4385385365   -0.1507935495
H        4.0566532907   -0.3452791682    0.6677460317
H       -0.5946655165   -1.0564506016    2.1879227253
H        3.6901004690   -0.9442102164    4.3609109018
H        5.8580978043   -0.5220577054    3.9087354990
H        1.7631350700   -2.3423928178    4.4858568674
H        1.3495372718   -0.6595768815    4.9132036795
H        0.1034567184   -1.7660244810    4.2986752125
H        6.9727834616   -2.0336937235    2.5754750411
H        5.5075463867   -2.4288533592    1.6500870964
H        6.4464583625   -0.9707037153    1.2502315287
22   

C        2.0315763851   -0.4120939097    0.1272130959
C        0.7161732927   -0.5864570949    0.5452133830
C        3.0750979897   -0.5219795534    1.0483295445
C        0.4489115093   -0.8701619315    1.8840637682
C        2.8291929341   -0.7905430184    2.4091641409
C        1.4847418474   -0.9707724901    2.8290885242
C        3.9408906428   -0.8659347598    3.3788418925
C        5.2662531168   -0.8478981216    3.1106868506
C        1.1427139873   -1.3566779308    4.2488154943
C        5.9805488523   -1.6240643588    2.0322286914
H        2.2457114851   -0.1835972875   -0.9104886825
H       -0.0970790183   -0.5059572322   -0.1670875957
H        4.0826762449   -0.3536982770    0.6938645889
H       -0.5795585950   -1.0227453788    2.1898827916
H        3.6779577053   -0.7956281569    4.4271095865
H        5.8950184750   -0.6396202878    3.9695871956
H        1.7610703631   -2.2015979907    4.5686986385
H        1.3092509076   -0.5112849539    4.9222523640
H        0.0960948204   -1.6656660645    4.3281049824
H        6.8488613463   -2.1387271644    2.4544540485
H        5.3151937716   -2.3739321529    1.5928313195
H        6.3262361965   -0.9467490133    1.2458323445
22   

C        2.0514308640   -0.4427993762    0.1339117428
C        0.7360732531   -0.6096511102    0.5525223814
C        3.0926150646   -0.5192091362    1.0608075989
C        0.4664252020   -0.8487119185    1.8989487028
C        2.8468140678   -0.7478440385    2.4304152912
C        1.4996286255   -0.9132150635    2.8501341617
C        3.9458931223   -0.7887228665    3.4177773021
C        5.2640742623   -0.9128678013    3.1642209043
C        1.1524222783   -1.2620508282    4.2783252022
C        5.8994606687   -1.6321136966    2.0022226780
H        2.2676370786   -0.2429575436   -0.9092705586
H       -0.0750641809   -0.5562962604   -0.1647243182
H        4.0944193693   -0.3417773333    0.6978160711
H       -0.5622999698   -0.9966209093    2.2060995021
H        3.6851884218   -0.6743498249    4.4628071642
H        5.9149905969   -0.7797569659    4.0215141041
H        1.7807312758   -2.0877531051    4.6278413339
H        1.2999156047   -0.3948145282    4.9278042442
H        0.1105470146   -1.5865790330    4.3583515805
H        6.7629879453   -2.2065772250    2.3506488416
H        5.1927876125   -2.3294685385    1.5416132375
H        6.2455590432   -0.9134034454    1.2536422250
22   

C        2.0589564841   -0.4695173741    0.1371596162
C        0.7442383208   -0.6217950988    0.5611662061
C        3.1013168303   -0.5247787013    1.0640620883
C        0.4763809656   -0.8223165901    1.9137024728
C        2.8595696995   -0.7188581567    2.4407434345
C        1.5106911954   -0.8638904199    2.8651073834
C        3.9528406501   -0.7386497734    3.4356488000
C        5.2544893322   -0.9988925713    3.2117394484
C        1.1619806543   -1.1791045614    4.3009084799
C        5.8636128270   -1.6272916029    1.9867068803
H        2.2740575113   -0.2952433468   -0.9108336927
H       -0.0676210554   -0.5858074398   -0.1563454396
H        4.0981880513   -0.3479872355    0.6897966721
H       -0.5523096711   -0.9596215329    2.2257651783
H        3.6935172144   -0.5970877821    4.4776946575
H        5.9035376147   -0.9427696372    4.0788854930
H        1.7912270811   -1.9950783919    4.6711181039
H        1.3058432132   -0.2963729746    4.9298641216
H        0.1210659291   -1.5052759677    4.3867298255
H        6.7333884130   -2.2248236776    2.2757067944
H        5.1512965536   -2.2945920637    1.4919197911
H        6.2003994214   -0.8553047259    1.2886233705
22   

C        2.0532989721   -0.4959713516    0.1369286386
C        0.7393739441   -0.6229818837    0.5700872748
C        3.0995632751   -0.5402244711    1.0599456634
C        0.4762451202   -0.7858014256    1.9281955516
C        2.8641086041   -0.6975869135    2.4429809536
C        1.5145000926   -0.8147246929    2.8758497438
C        3.9580651193   -0.7077045078    3.4381311429
C        5.2327158947   -1.0947516037    3.2469790540
C        1.1671105424   -1.0964049442    4.3190884510
C        5.8574555298   -1.6106930191    1.9790487789
H        2.2651110886   -0.3489539576   -0.9159025970
H       -0.0753798152   -0.5964789962   -0.1445504013
H        4.0930326474   -0.3780626162    0.6721612210
H       -0.5523323507   -0.9050835967    2.2478716482
H        3.6995710296   -0.5504365864    4.4780611557
H        5.8641614575   -1.1146818142    4.1286066219
H        1.7896994217   -1.9104987932    4.7045213854
H        1.3203287775   -0.2021987300    4.9292261157
H        0.1238437642   -1.4122670674    4.4144210288
H        6.7474864846   -2.1980027548    2.2239322844
H        5.1674948196   -2.2669890358    1.4401127317
H        6.1692289472   -0.7794760810    1.3398305913
22   

C        2.0640206461   -0.4110134541    0.1476717966
C        0.7498633073   -0.4545122893    0.5977294615
C        3.0964900036   -0.8750917109    0.9645896427
C        0.4724303751   -0.9691002221    1.8624594160
C        2.8446591691   -1.4084809087    2.2465575105
C        1.4961266133   -1.4572459149    2.6933967474
C        3.9260596001   -1.9396228117    3.1032682177
C        5.2378426250   -1.6446831955    3.0370857067
C        1.1405625127   -1.9136112446    4.0890282822
C        5.8809450618   -0.4963587654    2.3060412440
H        2.2859342344   -0.0287545523   -0.8420566607
H       -0.0541199027   -0.0892783121   -0.0311177038
H        4.0916100910   -0.8675575254    0.5465433462
H       -0.5550067268   -0.9774409694    2.2070508144
H        3.6500214212   -2.5881475285    3.9256845373
H        5.8745128198   -2.1602706975    3.7478429501
H        1.2486576743   -2.9983499358    4.1736049360
H        1.7910820490   -1.4257109288    4.8222389149
H        0.1096452496   -1.6432985152    4.3368125556
H        6.2014049372   -0.8101159229    1.3082581756
H        5.1959678507    0.3535948656    2.2293330262
H        6.7656918528   -0.1617541239    2.8558940660
22   

C        2.0566629033   -0.4295248870    0.1344551733
C        0.7415559757   -0.4568930694    0.5849948209
C        3.0866630582   -0.8776292815    0.9635152438
C        0.4608274560   -0.9365719607    1.8632067043
C        2.8291081864   -1.3790193285    2.2561006250
C        1.4821338471   -1.4070934864    2.7069895077
C        3.9150337739   -1.8907034038    3.1183492119
C        5.2400121978   -1.6998802725    2.9590494615
C        1.1262315291   -1.8322837762    4.1121632362
C        5.9150569331   -0.5078940355    2.3307756808
H        2.2809870126   -0.0706321264   -0.8634356034
H       -0.0607414309   -0.1050264366   -0.0535524608
H        4.0872956108   -0.8771088255    0.5565903207
H       -0.5668652170   -0.9326451898    2.2071932482
H        3.6361152874   -2.5178481306    3.9562197147
H        5.8739867081   -2.2782150169    3.6223505659
H        1.2370185502   -2.9146606461    4.2210865016
H        1.7754867698   -1.3269004606    4.8345009421
H        0.0941624499   -1.5597629342    4.3525648708
H        6.2481224884   -0.7501383147    1.3173222058
H        5.2381333153    0.3515164001    2.2985190374
H        6.7918229362   -0.2258312840    2.9213786440
22   

C        2.0352318616   -0.4546906844    0.1101619671
C        0.7212579099   -0.4759647374    0.5666962932
C        3.0708569282   -0.8685377163    0.9502106292
C        0.4475106929   -0.9115667523    1.8627449290
C        2.8177360668   -1.3290617652    2.2572417952
C        1.4748749508   -1.3453398219    2.7186116112
C        3.9198344465   -1.7996901563    3.1208236859
C        5.2469771090   -1.7224261708    2.8729396210
C        1.1286463484   -1.7325875263    4.1369538700
C        5.9987333743   -0.5274471151    2.3412925180
H        2.2541157601   -0.1246793267   -0.8988341333
H       -0.0857438982   -0.1519176737   -0.0805862237
H        4.0766137092   -0.8643918015    0.5532182611
H       -0.5790901222   -0.9035491879    2.2099993548
H        3.6424200423   -2.3893325115    3.9858673043
H        5.8584524854   -2.3632207057    3.4989715493
H        1.2605974819   -2.8088277860    4.2792270319
H        1.7695490952   -1.1929969007    4.8416956794
H        0.0914194224   -1.4739005074    4.3702207395
H        6.3314421053   -0.7162834432    1.3164406033
H        5.3633149805    0.3637093283    2.3536735335
H        6.8782993319   -0.3323236283    2.9621062447
22   

C        1.9952049036   -0.4814849980    0.0805886425
C        0.6846637983   -0.4949757044    0.5493593725
C        3.0403532889   -0.8578094780    0.9266931172
C        0.4241184163   -0.8818811660    1.8640881697
C        2.7983672414   -1.2711830044    2.2498843775
C        1.4616330013   -1.2749766153    2.7272109235
C        3.9214517437   -1.6985684586    3.1090830210
C        5.2419759419   -1.7308743493    2.7963906330
C        1.1311876655   -1.6211787822    4.1597442751
C        6.1077973731   -0.5631689280    2.3833631955
H        2.2037882495   -0.1844775821   -0.9407615440
H       -0.1301207178   -0.2015499967   -0.1027565042
H        4.0490067099   -0.8525705153    0.5339026481
H       -0.5998086346   -0.8695538674    2.2191040246
H        3.6461375931   -2.2442421720    4.0030056648
H        5.8073874670   -2.4416619191    3.3893960914
H        1.2881710741   -2.6889606870    4.3370838814
H        1.7639882756   -1.0445062269    4.8419598230
H        0.0891908201   -1.3795769699    4.3899206627
H        6.4485050921   -0.6952886562    1.3523221311
H        5.5434011586    0.3721047086    2.4518666714
H        6.9827130786   -0.4915592157    3.0364616919
22   

C        1.9200661767   -0.5440152340    0.0378622809
C        0.6193377956   -0.5406294951    0.5345737558
C        2.9856714323   -0.8611144002    0.8827951926
C        0.3892254999   -0.8493885941    1.8758030068
C        2.7739010709   -1.1922928157    2.2327078900
C        1.4482355504   -1.1778064443    2.7398996244
C        3.9266234170   -1.5531267161    3.0810851179
C        5.2385905003   -1.6996196582    2.7315325726
C        1.1486709930   -1.4590202063    4.1933395609
C        6.2506737079   -0.6176219663    2.4240520013
H        2.1050770354   -0.3046470952   -1.0029897171
H       -0.2117091340   -0.2953494507   -0.1169020465
H        3.9901218435   -0.8656750486    0.4773079053
H       -0.6279283119   -0.8296647589    2.2495184988
H        3.6619218468   -2.0203424848    4.0211702238
H        5.7294443143   -2.4713511636    3.3148674817
H        1.3489484167   -2.5095040522    4.4237700778
H        1.7673948498   -0.8240060121    4.8352364022
H        0.1003738174   -1.2481892377    4.4249768243
H        6.6080702158   -0.7220253338    1.3955098095
H        5.7940171979    0.3703403673    2.5384817939
H        7.1048285345   -0.6900043688    3.1040918382
22   

C        1.8227541189   -0.6027079961   -0.0001904386
C        0.5374362633   -0.5835101223    0.5352588745
C        2.9157766025   -0.8693496855    0.8269891448
C        0.3502300283   -0.8251859532    1.8969618213
C        2.7473863716   -1.1288996072    2.1976765631
C        1.4377707532   -1.0987987134    2.7446361808
C        3.9329503842   -1.4362005917    3.0214303385
C        5.2415866369   -1.6451174488    2.6562640925
C        1.1825043385   -1.3240867827    4.2161782030
C        6.3814341860   -0.6558966561    2.5141390567
H        1.9745325437   -0.4142851638   -1.0567763946
H       -0.3150632751   -0.3791526637   -0.1024728307
H        3.9096269502   -0.8857961505    0.3956667197
H       -0.6559381965   -0.7985111377    2.2989261798
H        3.6956182960   -1.8247949489    4.0034294016
H        5.6518326819   -2.4888309414    3.2011037573
H        1.4254761029   -2.3558664054    4.4872195559
H        1.7932884213   -0.6402227520    4.8137685414
H        0.1326578897   -1.1418312536    4.4643310503
H        6.7883479249   -0.6992454471    1.4997518490
H        6.0234136189    0.3603910729    2.7048036850
H        7.1804266057   -0.8853437460    3.2257538028
