28

C     -1.34255    0.60346   -1.33683
C     -1.00442   -0.43904   -0.45820
C     -2.37790    0.43886   -2.26390
C     -1.67481   -1.66815   -0.47941
C     -3.05055   -0.78377   -2.29114
C     -2.69710   -1.81400   -1.41299
C     -6.65171   -0.64185   -3.12954
C     -8.84538   -0.21112   -3.72389
C     -8.20106   -1.22705   -4.68430
C     -4.19021   -2.77593   -2.80779
C     -4.23574   -1.25686   -3.08946
N     -7.80974   -0.14561   -2.67576
N     -5.47243   -0.60315   -2.54423
O     -3.46498   -2.94130   -1.57074
O     -6.77479   -1.23030   -4.30725
H     -0.79135    1.53781   -1.30089
H     -0.19483   -0.29399    0.25139
H     -2.63964    1.24081   -2.94988
H     -1.40800   -2.47888    0.19078
H     -8.99239    0.77038   -4.18299
H     -9.79021   -0.57063   -3.31441
H     -8.56571   -2.24469   -4.54003
H     -8.25221   -0.94677   -5.73429
H     -5.17116   -3.23953   -2.69592
H     -3.63531   -3.27490   -3.60922
H     -4.19755   -1.03350   -4.15610
H     -7.87661    0.45606   -1.86291
H     -5.38393   -0.14419   -1.64224
