35

C      6.27284   -2.46649    7.02529
C      5.32270   -0.07556    5.41780
C      4.81599    0.60480    4.30915
C      3.19641   -1.17393    5.71755
C      4.51759   -0.96808    6.12893
C      3.49509    0.39120    3.88891
C      2.67865   -0.51178    4.60591
C     -0.46392   -0.98342    1.97668
C      0.87925   -1.27619    1.24734
C     -0.44069   -1.86463    3.24308
C      1.73058   -2.10952    2.24086
C      1.04087   -1.94594    3.60067
C      3.70461    1.91635    2.06276
C      5.05345   -1.67945    7.35103
N      7.22913   -3.09168    6.80660
O      5.34100   -0.71325    8.36533
O      1.37096   -0.67632    4.22644
O      2.91782    0.99400    2.81100
H      6.34893    0.09626    5.72972
H      5.45944    1.29345    3.77376
H      2.54198   -1.84554    6.26789
H     -0.50812    0.06887    2.26876
H     -1.33655   -1.18852    1.34957
H      0.72106   -1.82632    0.31474
H      1.38860   -0.34409    0.99465
H     -1.03711   -1.46398    4.06714
H     -0.80067   -2.87642    3.02183
H      1.71094   -3.17328    1.97657
H      2.78023   -1.80681    2.27115
H      1.27944   -2.75637    4.30035
H      3.05681    2.27590    1.26238
H      4.58581    1.43001    1.62666
H      4.02198    2.76433    2.68160
H      4.30321   -2.40032    7.70280
H      5.72526   -1.17291    9.13134
