29   
Generated by ForceBalance from scan.xyz: Frame 1 of 24
C       -5.4931114078   -3.5648116398    0.8013324083
C       -4.4486723340   -4.4755965529    0.9702745839
C       -5.7117972586   -2.5662885664    1.7548363570
C       -3.6127025923   -4.4135052521    2.0945025530
C       -4.8977697724   -2.4698735012    2.8900272649
C       -3.8638126895   -3.4082199686    3.0396647725
C       -2.6810449751   -3.6654485479    6.5357790775
C       -2.4782723922   -5.3925131668    2.2824543699
C       -5.0985152422   -1.3852496362    3.9212620708
C       -1.1863372937   -1.9630096146    7.5207442870
C       -3.3941877133   -4.1148389862    5.2643958061
N       -1.9472495858   -2.5296412917    6.4185383151
O       -2.8131939343   -4.3207713009    7.5698483618
O       -3.0304413603   -3.2885326727    4.1507808892
H       -6.1307449909   -3.6262678330   -0.0766711538
H       -4.2713468464   -5.2430342906    0.2201073737
H       -6.5188045134   -1.8505658840    1.6163062641
H       -1.6235468554   -4.9184162798    2.7717461881
H       -2.7833727624   -6.2419318467    2.9055468410
H       -2.1503311922   -5.7961377005    1.3206901004
H       -5.3060392578   -1.7990684051    4.9137723018
H       -4.2020553887   -0.7641220575    4.0193855045
H       -5.9349766741   -0.7380708167    3.6456011030
H       -1.4762547555   -0.9216147373    7.6967142295
H       -0.1099020882   -2.0031510397    7.3188415070
H       -1.4009449043   -2.5494398141    8.4146704992
H       -3.1270183483   -5.1610465590    5.0809622718
H       -4.4737037396   -4.0674338448    5.4461691692
H       -1.9095671509   -2.1072109715    5.4988712084
29   
Generated by ForceBalance from scan.xyz: Frame 2 of 24
C       -5.5492763178   -3.4764318840    0.8803670623
C       -4.5573967706   -4.4565069583    0.9533651086
C       -5.6365184225   -2.4941844483    1.8707448635
C       -3.6431504367   -4.4782789299    2.0160175181
C       -4.7402468343   -2.4805052069    2.9468846295
C       -3.7598498299   -3.4841067127    2.9985078091
C       -2.6277583065   -3.7079205691    6.4736166553
C       -2.5672155204   -5.5337659389    2.1065641161
C       -4.8019934715   -1.4155499673    4.0155314925
C       -1.4635509091   -1.7879856606    7.5056206888
C       -3.1659199699   -4.2868955219    5.1675080959
N       -2.0447147127   -2.4869258544    6.3705998161
O       -2.7547537484   -4.3474679419    7.5180397321
O       -2.8427894862   -3.4497161503    4.0475570623
H       -6.2498635009   -3.4733921220    0.0494776103
H       -4.4845851163   -5.2138625406    0.1761019774
H       -6.4052451877   -1.7274241418    1.8087826237
H       -1.6337641361   -5.1141142478    2.4911602070
H       -2.8626210346   -6.3464771450    2.7810312600
H       -2.3734138159   -5.9770410597    1.1262042071
H       -4.8947796366   -1.8457405041    5.0177978001
H       -3.8923514221   -0.8046546450    4.0154804217
H       -5.6543657317   -0.7512166899    3.8521439027
H       -1.9142398420   -0.7966061168    7.6227827679
H       -0.3802068111   -1.6741932166    7.3860840337
H       -1.6610626630   -2.3779219541    8.4012338168
H       -2.7360007210   -5.2861402499    5.0404760085
H       -4.2509166507   -4.3938085909    5.2706896574
H       -1.9921895615   -2.0898609510    5.4404476599
29   
Generated by ForceBalance from scan.xyz: Frame 3 of 24
C       -5.3120198046   -3.9288729220    0.5389801838
C       -4.0109034322   -4.3277928552    0.8509660041
C       -6.0745639939   -3.2372527385    1.4834902932
C       -3.4546086880   -4.0491958071    2.1068813419
C       -5.5550221640   -2.9412894082    2.7504959585
C       -4.2470931140   -3.3621573650    3.0397026827
C       -4.1577841234   -3.6286282058    6.6305072322
C       -2.0453639229   -4.4670452589    2.4515168697
C       -6.3676161204   -2.1844513451    3.7731324637
C       -4.9025906119   -1.6840885407    7.9610226678
C       -3.6875982408   -4.0949096407    5.2531801589
N       -4.4435179119   -2.3061890802    6.7298286644
O       -4.2365034779   -4.4426774360    7.5508585435
O       -3.7041644125   -3.0363316665    4.2816096681
H       -5.7293297499   -4.1503940184   -0.4397611685
H       -3.4129048308   -4.8560834414    0.1118920160
H       -7.0860585503   -2.9221624378    1.2380149521
H       -1.5253421930   -3.6793609181    3.0042549359
H       -2.0360411789   -5.3659406601    3.0793130364
H       -1.4749184884   -4.6930951157    1.5468954453
H       -6.4686901180   -2.7435884312    4.7083389905
H       -5.8973336894   -1.2258698160    4.0206963553
H       -7.3706274350   -1.9758528197    3.3923225284
H       -5.8850963760   -1.2201089518    7.8205103943
H       -4.1947003735   -0.9208837375    8.3027228720
H       -4.9808418035   -2.4614245290    8.7218677227
H       -2.6706849224   -4.4860751676    5.3637798770
H       -4.3379384431   -4.9175900017    4.9424192087
H       -4.3375094075   -1.7580374757    5.8852137739
29   
Generated by ForceBalance from scan.xyz: Frame 4 of 24
C       -5.4180709501   -3.9042393357    0.5136516242
C       -4.0946011781   -4.2519065133    0.7909697997
C       -6.1389259403   -3.1293309364    1.4246428898
C       -3.4781692303   -3.8395639790    1.9794784601
C       -5.5604208278   -2.7013105386    2.6274997294
C       -4.2329260562   -3.0775674297    2.8873105919
C       -4.1773635242   -3.2305826635    6.3947850095
C       -2.0392959244   -4.1880230805    2.2767333156
C       -6.3426510788   -1.8567919265    3.6041808581
C       -5.2588092951   -1.3846301128    7.6320766665
C       -3.4633754523   -3.6117123698    5.0967910989
N       -4.5458073762   -1.9273707396    6.4871881351
O       -4.3312400677   -4.0737271510    7.2783324309
O       -3.6173640542   -2.6304347250    4.0564195176
H       -5.8837427888   -4.2280670895   -0.4133682910
H       -3.5259381969   -4.8411255180    0.0752141654
H       -7.1668566973   -2.8510934905    1.2043541301
H       -1.5044294302   -3.3273273847    2.6888989566
H       -1.9622739104   -4.9988877393    3.0105013782
H       -1.5249011822   -4.5162389816    1.3698959307
H       -6.4574596803   -2.3559412169    4.5709535974
H       -5.8435317134   -0.8990394961    3.7894119167
H       -7.3407938434   -1.6429148500    3.2137258042
H       -6.3082359944   -1.1793756686    7.3882603376
H       -4.7857514630   -0.4582078766    7.9726101095
H       -5.2217949250   -2.1223731044    8.4343385266
H       -2.3973091050   -3.7247351206    5.3215415615
H       -3.8530836417   -4.5822913257    4.7818056600
H       -4.4098116019   -1.3629087464    5.6578900452
29   
Generated by ForceBalance from scan.xyz: Frame 5 of 24
C       -5.5124717029   -3.9835281006    0.6772169169
C       -4.1863849390   -4.3541305131    0.9059388053
C       -6.1527473926   -3.1185461134    1.5659979465
C       -3.4915342728   -3.8821694798    2.0267784858
C       -5.4963915591   -2.6297077734    2.7044507596
C       -4.1721730334   -3.0418444684    2.9269123676
C       -4.1237072942   -3.2656637965    6.3188454112
C       -2.0407787154   -4.2428387373    2.2456362662
C       -6.2045534981   -1.6814030045    3.6418297379
C       -5.4453869027   -1.5902428945    7.5687306077
C       -3.2347121491   -3.4806904095    5.0911501885
N       -4.5562135043   -1.9885258310    6.4895025806
O       -4.3364183292   -4.1920353799    7.1002726890
O       -3.4697597611   -2.5431745225    4.0260687560
H       -6.0394049501   -4.3529751874   -0.1985056277
H       -3.6743938458   -5.0048250471    0.2006824555
H       -7.1792676971   -2.8127091341    1.3780116220
H       -1.4760521548   -3.3855211117    2.6226537487
H       -1.9250869016   -5.0538777229    2.9740385482
H       -1.5827802500   -4.5767292362    1.3109623243
H       -6.4171193322   -2.1517776764    4.6064312851
H       -5.6019211636   -0.7877116992    3.8348714173
H       -7.1548259534   -1.3570137781    3.2101362643
H       -6.4661270386   -1.4195711727    7.2045240876
H       -5.0812133663   -0.6745319998    8.0447077294
H       -5.4644900654   -2.3942255483    8.3051690774
H       -2.1906533577   -3.3720920070    5.4032763624
H       -3.3919667997   -4.5078034504    4.7581299265
H       -4.3789652342   -1.3502947860    5.7242027127
29   
Generated by ForceBalance from scan.xyz: Frame 6 of 24
C       -5.5992328280   -4.0831245831    0.8799810806
C       -4.2808429171   -4.4892672215    1.0866016535
C       -6.1456749526   -3.0833927635    1.6854042811
C       -3.5031883855   -3.9292224063    2.1085574730
C       -5.4078329944   -2.5040736128    2.7268043920
C       -4.0987729450   -2.9673604297    2.9475694956
C       -3.9849407968   -3.2466546474    6.2121107225
C       -2.0523989925   -4.3291781613    2.2573011106
C       -6.0216027109   -1.4003581529    3.5555328545
C       -5.6098838434   -1.8677536429    7.4699238424
C       -2.9814532017   -3.2371989952    5.0543218612
N       -4.6084710401   -2.0587497303    6.4331005888
O       -4.1197015566   -4.2497481961    6.9114123123
O       -3.3312563705   -2.3793684383    3.9562620704
H       -6.1882995673   -4.5226999629    0.0795120299
H       -3.8342127189   -5.2361374103    0.4339660083
H       -7.1607791576   -2.7373592030    1.5045470081
H       -1.4535032085   -3.5101508625    2.6632260456
H       -1.9286254235   -5.1928551768    2.9212166715
H       -1.6365308270   -4.6082206865    1.2851957384
H       -6.3984325419   -1.7798837385    4.5105025071
H       -5.2969660207   -0.6085088928    3.7672059353
H       -6.8641199438   -0.9502690527    3.0238271822
H       -6.6172753148   -1.7824441561    7.0441077367
H       -5.3930064179   -0.9653075804    8.0500678426
H       -5.5798712258   -2.7345503103    8.1307685522
H       -2.0201738595   -2.8773441675    5.4347085395
H       -2.8629949828   -4.2727904995    4.7362660844
H       -4.4609587286   -1.3352129663    5.7419191141
29   
Generated by ForceBalance from scan.xyz: Frame 7 of 24
C       -6.0036020620   -3.8924267345    1.2711528995
C       -4.7578532516   -4.4717007888    1.5122517088
C       -6.3024064642   -2.6436825336    1.8220703163
C       -3.8019701230   -3.8434556895    2.3251228533
C       -5.3835854269   -1.9838306181    2.6466341400
C       -4.1541838254   -2.6190506566    2.9236479488
C       -3.7688224493   -2.6034178896    6.1302564546
C       -2.4283510829   -4.4574246517    2.4755891156
C       -5.6718825117   -0.6080817728    3.2004619457
C       -6.0735664053   -2.9362968931    6.9145673979
C       -2.7968378352   -2.5140596061    4.9468700636
N       -5.0895213288   -2.7660560854    5.8530708644
O       -3.3177722949   -2.5672716873    7.2756131755
O       -3.2841101553   -1.9127302853    3.7405598042
H       -6.7267318465   -4.3976391339    0.6366524042
H       -4.5042984148   -5.4208396041    1.0452194564
H       -7.2570130643   -2.1687824035    1.6080088852
H       -1.6575663483   -3.6897419844    2.5835416152
H       -2.3622462497   -5.1257466960    3.3423383211
H       -2.1877512294   -5.0546252648    1.5917959285
H       -5.5440618818   -0.5685901559    4.2857336715
H       -4.9813510676    0.1299980346    2.7786290663
H       -6.6922741264   -0.3009645397    2.9562744890
H       -6.0651295406   -3.9565356179    7.3156940945
H       -7.0664500342   -2.7153208542    6.5163560432
H       -5.8484552874   -2.2478038228    7.7311132216
H       -1.9716588433   -1.8819880597    5.2749255235
H       -2.4024324115   -3.5185678620    4.7724164407
H       -5.3788476735   -2.8991092123    4.8922184781
29   
Generated by ForceBalance from scan.xyz: Frame 8 of 24
C       -6.0453082053   -3.8904275938    1.3250071634
C       -4.8326266390   -4.5017641385    1.6432368754
C       -6.3027568376   -2.5940719252    1.7770719142
C       -3.8670336893   -3.8565184079    2.4312457657
C       -5.3743257660   -1.9152137764    2.5743347820
C       -4.1754340391   -2.5739583255    2.9222490747
C       -3.7359524559   -2.7684874420    6.0453039719
C       -2.5352416724   -4.5290872669    2.6745175292
C       -5.6250035892   -0.5003071349    3.0415243322
C       -6.0184667021   -3.2226809872    6.8079742852
C       -2.7731467873   -2.3565628146    4.9252779751
N       -5.0716161276   -2.7617689738    5.7989287653
O       -3.2492765395   -3.0771546028    7.1339716911
O       -3.3096002727   -1.8284193767    3.7070136973
H       -6.7748607857   -4.4116410144    0.7112455063
H       -4.6130521360   -5.4955297467    1.2595208800
H       -7.2328715598   -2.0982204448    1.5095065554
H       -1.7104998389   -3.8124326667    2.6241942570
H       -2.4912975126   -5.0250890177    3.6509062083
H       -2.3595468543   -5.2955236959    1.9151372363
H       -5.5518369260   -0.4085941302    4.1297634445
H       -4.8800081898    0.1849452236    2.6239339125
H       -6.6167367767   -0.1622155898    2.7300203594
H       -5.9837249885   -4.3115661823    6.9288962146
H       -7.0252489850   -2.9254163366    6.5069110116
H       -5.7777592299   -2.7655028097    7.7694745271
H       -2.1611885284   -1.5489869591    5.3309665637
H       -2.1121202259   -3.2073446546    4.7506767648
H       -5.3920903649   -2.6689292984    4.8437159452
29   
Generated by ForceBalance from scan.xyz: Frame 9 of 24
C       -5.9565339216   -3.9115103071    1.2337576596
C       -4.8013643753   -4.5513963161    1.6804006004
C       -6.1948677016   -2.5863408133    1.6056605564
C       -3.8727397150   -3.9063385544    2.5135407745
C       -5.3068486393   -1.9080897522    2.4458426741
C       -4.1648573413   -2.5894135960    2.9141653933
C       -3.7707422505   -3.1895253335    5.8125811932
C       -2.5985567797   -4.6299582616    2.8905542405
C       -5.5452515934   -0.4669878914    2.8329281353
C       -6.1186128197   -3.4924861352    6.5005324179
C       -2.8013549642   -2.3840938937    4.9396254294
N       -5.0587409283   -2.7508824694    5.8301789796
O       -3.3499225864   -4.1298133459    6.4862494703
O       -3.3467386501   -1.8253963049    3.7387820024
H       -6.6552138555   -4.4341647825    0.5862006373
H       -4.5953226057   -5.5718514743    1.3657972167
H       -7.0803299182   -2.0693964541    1.2431125353
H       -1.7203792401   -3.9939462410    2.7417147425
H       -2.5985472651   -4.9682167727    3.9316490004
H       -2.4757015180   -5.5140378922    2.2597842314
H       -5.6006274952   -0.3267025395    3.9189682102
H       -4.7280672753    0.1747490994    2.4883140708
H       -6.4792064737   -0.1015230149    2.3984871535
H       -6.6290260446   -4.1740491405    5.8095478607
H       -6.8484225219   -2.7953409311    6.9214703425
H       -5.6721459096   -4.0767509848    7.3052056953
H       -2.4571960661   -1.5204309119    5.5165462335
H       -1.9408069616   -3.0222537750    4.7433872140
H       -5.3240398802   -2.0689405469    5.1325327824
29   
Generated by ForceBalance from scan.xyz: Frame 10 of 24
C       -5.9912779848   -3.9454490687    1.4226840935
C       -4.8210248831   -4.5819062648    1.8371068438
C       -6.2021185325   -2.6038932863    1.7516799379
C       -3.8522444622   -3.9109788599    2.5990003517
C       -5.2690474518   -1.9003732826    2.5210555377
C       -4.1165650611   -2.5785152856    2.9609600074
C       -3.7790174781   -3.1762927705    5.7790218462
C       -2.5592751613   -4.6043323892    2.9624013585
C       -5.4719191813   -0.4422110993    2.8608184249
C       -6.1368758874   -3.5618376704    6.3649118671
C       -2.7925491784   -2.2961079461    4.9993487001
N       -5.0664633300   -2.7319102039    5.8246664211
O       -3.3805720367   -4.1789579187    6.3704612140
O       -3.2290441660   -1.8201293957    3.7147028560
H       -6.7251981593   -4.4848082756    0.8299679432
H       -4.6382249854   -5.6154641048    1.5520550903
H       -7.1000110004   -2.0942099287    1.4097973053
H       -1.7021501296   -3.9419552146    2.8060956916
H       -2.5434256064   -4.9328469048    4.0064801634
H       -2.4187057949   -5.4883729400    2.3350297241
H       -5.4395250715   -0.2534454929    3.9404474782
H       -4.6811850347    0.1768515090    2.4247816094
H       -6.4350169980   -0.0880185449    2.4844488139
H       -6.5105997193   -4.2718715360    5.6172583588
H       -6.9584963280   -2.9220370493    6.6964660390
H       -5.7490237758   -4.1214192916    7.2162577568
H       -2.5801105691   -1.3951764834    5.5835329455
H       -1.8707398575   -2.8722524794    4.9065410399
H       -5.3267472291   -2.0101047377    5.1661580596
29   
Generated by ForceBalance from scan.xyz: Frame 11 of 24
C       -6.0377715553   -3.9591645004    1.5362790169
C       -4.8652434583   -4.6071932047    1.9286956453
C       -6.2150619003   -2.6043628251    1.8306111961
C       -3.8614065534   -3.9303218986    2.6367008845
C       -5.2421898511   -1.8943140896    2.5440077170
C       -4.0901286852   -2.5830444322    2.9629397591
C       -3.7931572357   -3.1316527217    5.7483705385
C       -2.5666506081   -4.6183224267    2.9995241940
C       -5.4032851467   -0.4232206301    2.8481914044
C       -6.1466929939   -3.6253621307    6.2529885292
C       -2.8216801183   -2.1895576491    5.0215348374
N       -5.0941937924   -2.7239997751    5.7965356205
O       -3.3821841427   -4.1506236707    6.3017791513
O       -3.1423593482   -1.8436411478    3.6578025805
H       -6.8019201723   -4.5015841707    0.9858988259
H       -4.7121794873   -5.6524381569    1.6698767674
H       -7.1160183242   -2.0900169789    1.5039282943
H       -1.7137752699   -3.9550145991    2.8247442542
H       -2.5426219294   -4.9186447731    4.0517272417
H       -2.4303662101   -5.5168203049    2.3918801882
H       -5.3261293039   -0.2049806163    3.9202286887
H       -4.6167242328    0.1655024933    2.3652878956
H       -6.3723886672   -0.0583233066    2.4982841994
H       -6.4352959801   -4.3338308918    5.4670871815
H       -7.0195254171   -3.0383153711    6.5485619248
H       -5.7806621996   -4.1860237810    7.1132551365
H       -2.7583342182   -1.2416168853    5.5666886277
H       -1.8455590229   -2.6776502412    5.0500127729
H       -5.3680990779   -1.9881879938    5.1592688894
29   
Generated by ForceBalance from scan.xyz: Frame 12 of 24
C       -5.9011352493   -4.0335930497    1.0032728022
C       -4.5325603190   -4.3120733455    0.9865541692
C       -6.4351172082   -3.2165909378    2.0037429401
C       -3.6703921088   -3.7687978108    1.9494763891
C       -5.6061122772   -2.6493081190    2.9799803856
C       -4.2277232144   -2.9174965625    2.9179920098
C       -2.4923963010   -0.7709552037    2.1278827471
C       -2.1978194885   -4.1023412649    1.9641721794
C       -6.1602043379   -1.7774340459    4.0826688030
C       -3.7854442799    0.0236777179    0.1995795395
C       -2.5276513639   -1.2742085316    3.5796635744
N       -3.6660892807   -0.2954007146    1.6185550335
O       -1.4297651485   -0.7368705903    1.5080566740
O       -3.4268536984   -2.3587353561    3.9023791727
H       -6.5531056237   -4.4658683375    0.2488393193
H       -4.1235601777   -4.9712820358    0.2241883496
H       -7.5039526488   -3.0169384778    2.0310259409
H       -1.5905937918   -3.2929495967    1.5469692760
H       -1.8513713707   -4.2745703758    2.9876810276
H       -2.0036106670   -5.0038127791    1.3769718474
H       -5.9796267402   -2.2267662748    5.0643767004
H       -5.6868020804   -0.7887300528    4.1083734699
H       -7.2368589455   -1.6334370836    3.9606951237
H       -4.6599473202    0.6610297682    0.0496393426
H       -3.8900263824   -0.8832334818   -0.4083630069
H       -2.8899720294    0.5571574561   -0.1199651032
H       -1.5124544841   -1.5999103657    3.8112846119
H       -2.7907607295   -0.4372006663    4.2375658166
H       -4.5179578067   -0.5594491577    2.0960707638
29   
Generated by ForceBalance from scan.xyz: Frame 13 of 24
C       -5.8509600356   -4.1020279762    0.9907497650
C       -4.4817582210   -4.3725023320    1.0202028148
C       -6.4108641108   -3.2504489470    1.9472335570
C       -3.6428495678   -3.7888144177    1.9807557452
C       -5.6082356634   -2.6388682876    2.9174544294
C       -4.2262366080   -2.8972077364    2.8963964287
C       -2.4865168958   -0.7942956719    2.0682261791
C       -2.1748698388   -4.1382163962    2.0481314763
C       -6.1987496753   -1.7369403476    3.9759531805
C       -3.9002464571    0.1536318044    0.2971937567
C       -2.4417780761   -1.3343769778    3.5055643955
N       -3.6530162751   -0.1953500023    1.6920926339
O       -1.4932550482   -0.8528285113    1.3447555358
O       -3.4640319175   -2.2814190880    3.8802136257
H       -6.4826725672   -4.5677328303    0.2389801856
H       -4.0515722087   -5.0619001574    0.2973147160
H       -7.4812366254   -3.0573694368    1.9437589650
H       -1.5473449494   -3.3582957012    1.6055329507
H       -1.8557217772   -4.2707518927    3.0865901304
H       -1.9807644343   -5.0697950072    1.5099719507
H       -6.0436696405   -2.1528951659    4.9766436571
H       -5.7340090663   -0.7435981869    3.9885826828
H       -7.2724027698   -1.6052642293    3.8188670939
H       -4.7084894302    0.8871451847    0.2492195701
H       -4.1754267946   -0.7284996717   -0.2934881048
H       -2.9932901397    0.5879159645   -0.1240570226
H       -1.4599572628   -1.7960349402    3.6272909438
H       -2.5293201871   -0.5004483088    4.2103236894
H       -4.4641079932   -0.3654213358    2.2714950877
29   
Generated by ForceBalance from scan.xyz: Frame 14 of 24
C       -5.8318448182   -4.2045124369    1.0609105070
C       -4.4622733894   -4.4651227642    1.1107264572
C       -6.3982920824   -3.3091331682    1.9719998820
C       -3.6284082111   -3.8315580072    2.0448580403
C       -5.6024174787   -2.6448362347    2.9114421638
C       -4.2170561438   -2.8949202048    2.9122213346
C       -2.3762554117   -0.8199660322    2.0749097587
C       -2.1641258206   -4.1975316451    2.1259217177
C       -6.2061115487   -1.6951532085    3.9196105570
C       -3.7719105146    0.2473293763    0.3540724789
C       -2.3421139753   -1.4303957158    3.4827814418
N       -3.5379597595   -0.2014761681    1.7217593443
O       -1.3738522908   -0.8480678445    1.3619441414
O       -3.4868215018   -2.2075434705    3.8741134108
H       -6.4577013131   -4.7107917894    0.3309417765
H       -4.0249958973   -5.1884875404    0.4263088754
H       -7.4694171078   -3.1211823515    1.9561023677
H       -1.5206229185   -3.4390120109    1.6689602858
H       -1.8486263074   -4.3225487747    3.1664562167
H       -1.9842435508   -5.1416730292    1.6052348388
H       -6.0526396193   -2.0566076060    4.9415524750
H       -5.7517401471   -0.6978363516    3.8830330278
H       -7.2801111271   -1.5832599172    3.7502680379
H       -4.5389022884    1.0256537031    0.3563223490
H       -4.0970066580   -0.5789177965   -0.2896305368
H       -2.8434185348    0.6569212062   -0.0442583269
H       -1.4305434938   -2.0271157991    3.5397693596
H       -2.2752622300   -0.6243922039    4.2203119000
H       -4.3501448419   -0.3886345369    2.2941451016
29   
Generated by ForceBalance from scan.xyz: Frame 15 of 24
C       -5.8766599346   -4.3675113092    1.1399104312
C       -4.5068410309   -4.6156711759    1.2142844540
C       -6.4541616958   -3.4359926963    2.0058161497
C       -3.6797488472   -3.9403445691    2.1265072521
C       -5.6687219439   -2.7276649555    2.9201517187
C       -4.2801359419   -2.9698762853    2.9497737454
C       -2.3052364398   -0.8559486553    2.2114496593
C       -2.2176385483   -4.3199578500    2.2132355576
C       -6.2892121924   -1.7372059733    3.8779895371
C       -3.6033438853    0.3708104320    0.5149324283
C       -2.3499994905   -1.5886162891    3.5574599796
N       -3.4591903554   -0.2465983923    1.8268030267
O       -1.2491236685   -0.7954211202    1.5820235004
O       -3.5925617188   -2.2167533146    3.8948609593
H       -6.4920813554   -4.9089685653    0.4266607886
H       -4.0597375950   -5.3647970134    0.5649435178
H       -7.5255597077   -3.2521481238    1.9733747844
H       -1.5605280925   -3.5685788350    1.7637073691
H       -1.9044941691   -4.4650917385    3.2517778216
H       -2.0484673079   -5.2610223398    1.6837281659
H       -6.1373445742   -2.0456777408    4.9174275549
H       -5.8480800691   -0.7370799380    3.7939005283
H       -7.3634606269   -1.6482883514    3.6972514929
H       -4.3109994337    1.2017339525    0.5772890373
H       -3.9590082292   -0.3496502208   -0.2314678990
H       -2.6298918317    0.7482370689    0.2012099761
H       -1.5175043355   -2.2907396783    3.5674659652
H       -2.1841399879   -0.8559871265    4.3531029519
H       -4.2995696974   -0.4819732210    2.3369898909
29   
Generated by ForceBalance from scan.xyz: Frame 16 of 24
C       -5.9035748717   -4.2964997881    1.1095799688
C       -4.5535344664   -4.6204269584    1.2439936361
C       -6.4619774284   -3.3156503322    1.9325784022
C       -3.7282347798   -3.9667267520    2.1719962701
C       -5.6757824245   -2.6296247243    2.8651704083
C       -4.3018707230   -2.9423012052    2.9483169899
C       -2.4373514311   -0.4319279360    2.4945780660
C       -2.2942534188   -4.4155330424    2.3377936685
C       -6.2737925673   -1.5906466143    3.7849287768
C       -3.6460580632    0.7277642850    0.7082432735
C       -2.3915783191   -1.5293675525    3.5644937420
N       -3.5837705065   -0.2489046568    1.7896421857
O       -1.4250042436    0.2504064717    2.3305698680
O       -3.5986997751   -2.2223061752    3.9014475725
H       -6.5208808982   -4.8197043483    0.3844566633
H       -4.1255439036   -5.4112551344    0.6320763302
H       -7.5201300765   -3.0770718448    1.8553286516
H       -1.5917219178   -3.7760464350    1.7911619027
H       -1.9960335773   -4.4196474518    3.3901027103
H       -2.1736243202   -5.4310618856    1.9516518410
H       -6.1917291475   -1.9036946832    4.8309757444
H       -5.7557313800   -0.6294079340    3.7096349173
H       -7.3308058868   -1.4349243544    3.5539477207
H       -4.6912376144    0.8756415117    0.4284153226
H       -3.0797235508    0.3967125508   -0.1699069764
H       -3.2241563644    1.6754556054    1.0478988595
H       -1.5893108604   -2.2123627013    3.2795265776
H       -2.0860575390   -1.0395698569    4.4907764184
H       -4.3116496970   -0.9491711110    1.8495205530
29   
Generated by ForceBalance from scan.xyz: Frame 17 of 24
C       -5.8956542192   -4.3571394665    1.1412253778
C       -4.5696652630   -4.7448568232    1.3335969550
C       -6.4195688132   -3.2967126378    1.8849778568
C       -3.7329869109   -4.0729249663    2.2378325142
C       -5.6199417413   -2.5911653359    2.7918091509
C       -4.2654467928   -2.9648834421    2.9235315140
C       -2.4955807347   -0.2835036884    2.5941054486
C       -2.3349929357   -4.5910173433    2.4900628421
C       -6.1901049022   -1.4811946811    3.6435146586
C       -3.7647250900    0.9497945556    0.8895249889
C       -2.3311809351   -1.5654179685    3.4204251503
N       -3.5704132271   -0.1979218237    1.7665169286
O       -1.6353127885    0.5937176124    2.6779004784
O       -3.5273226033   -2.2332243932    3.8417373830
H       -6.5244951929   -4.8942898198    0.4364020905
H       -4.1733472349   -5.6006936529    0.7916111358
H       -7.4627884674   -3.0128664078    1.7677130644
H       -1.5909019898   -4.1203435806    1.8365540337
H       -2.0275220801   -4.4224331083    3.5255056000
H       -2.2953378295   -5.6666638105    2.2976066336
H       -6.1759009025   -1.7612913004    4.7022313195
H       -5.6080952674   -0.5594160206    3.5580582459
H       -7.2243978220   -1.2703486352    3.3590328447
H       -4.8102577928    0.9824464381    0.5748948183
H       -3.1229991802    0.8955516746    0.0023494718
H       -3.5198564503    1.8653759236    1.4310383960
H       -1.6669481432   -2.2302743161    2.8620434644
H       -1.8206776971   -1.2749825006    4.3386230552
H       -4.1785728577   -1.0005321522    1.6635545417
29   
Generated by ForceBalance from scan.xyz: Frame 18 of 24
C       -5.0022019855   -4.4983390827    1.2724058742
C       -3.6396777232   -4.5590671442    1.5666904063
C       -5.8155319159   -3.5985561406    1.9613765267
C       -3.0762373168   -3.7599372923    2.5709116260
C       -5.2923170632   -2.7727543020    2.9649187911
C       -3.9267807995   -2.8986984968    3.2863643117
C       -2.9375459254   -3.3303678029    6.3822431336
C       -1.5909778738   -3.8287073625    2.8373438316
C       -6.1794953003   -1.7495030255    3.6378002508
C       -0.6307412643   -4.1799583119    6.6680380420
C       -3.8058185151   -2.3283575006    5.6143820701
N       -1.6156862327   -3.2959895968    6.0657941816
O       -3.4289954735   -4.0313564302    7.2656988063
O       -3.3815307520   -2.0661719616    4.2671117212
H       -5.4213022424   -5.1284744711    0.4924950907
H       -2.9946535166   -5.2324196561    1.0068408628
H       -6.8695554171   -3.5141777990    1.7061371238
H       -1.1708838277   -2.8354353230    3.0213015950
H       -1.3693535613   -4.4572572466    3.7055821094
H       -1.0706691765   -4.2586170492    1.9773527931
H       -6.6807920068   -2.1570120201    4.5236242605
H       -5.6076735081   -0.8734570744    3.9537386264
H       -6.9616720727   -1.4176683845    2.9494050889
H        0.2314385508   -3.6076721087    7.0249297748
H       -0.2832566475   -4.9374919306    5.9548319296
H       -1.1019275931   -4.6822290269    7.5134107299
H       -4.8262955442   -2.7091482850    5.6498917254
H       -3.7731745227   -1.3696532184    6.1417015318
H       -1.3549676412   -2.7231646861    5.2740384376
29   
Generated by ForceBalance from scan.xyz: Frame 19 of 24
C       -5.0304376160   -4.3308519640    1.1061827318
C       -3.7072757828   -4.5533459259    1.4901921612
C       -5.8103020649   -3.4115275577    1.8098444014
C       -3.1476726822   -3.8872160556    2.5899233681
C       -5.2878742466   -2.7190476679    2.9094238086
C       -3.9631499653   -2.9900659330    3.2988269434
C       -2.8605202072   -3.4811439618    6.4774655925
C       -1.7081539073   -4.1315127661    2.9741975764
C       -6.1159656805   -1.6864169143    3.6378161314
C       -0.4443952721   -3.9252215954    6.7652506668
C       -3.8878356531   -2.6772315352    5.6762286213
N       -1.5651182056   -3.2335413609    6.1493383127
O       -3.2277915194   -4.2231160883    7.3878237719
O       -3.4307683381   -2.2743432348    4.3735980036
H       -5.4461141560   -4.8586760965    0.2519828265
H       -3.0921387470   -5.2538622945    0.9302842547
H       -6.8327390333   -3.2135662573    1.4962482268
H       -1.1591716326   -3.1901561601    3.0816996829
H       -1.6300242571   -4.6704779478    3.9230197745
H       -1.2046165596   -4.7264402571    2.2079503441
H       -6.5418855314   -2.0827936546    4.5668772676
H       -5.5105521822   -0.8155784987    3.9047535952
H       -6.9491291173   -1.3525295640    3.0139787961
H        0.3180702921   -3.2089902204    7.0873966643
H        0.0121368280   -4.6420110245    6.0715986606
H       -0.8184953647   -4.4655844658    7.6353940507
H       -4.7895852075   -3.2879918379    5.6093428657
H       -4.1244793635   -1.7688679456    6.2403571483
H       -1.4128840053   -2.6645902057    5.3262329590
29   
Generated by ForceBalance from scan.xyz: Frame 20 of 24
C       -5.0772201173   -4.2108513794    0.9410639182
C       -3.7825605774   -4.5450104674    1.3438749218
C       -5.8183194986   -3.2865618852    1.6798030326
C       -3.2125148197   -3.9770868893    2.4915614819
C       -5.2827946659   -2.6922344334    2.8298556225
C       -3.9856193499   -3.0618810782    3.2237731291
C       -2.7777413349   -3.5067278388    6.4908466002
C       -1.8092607298   -4.3364870376    2.9166553510
C       -6.0660931296   -1.6715030554    3.6202663996
C       -0.3285398421   -3.6573489488    6.7879408664
C       -3.8948151061   -2.9315057775    5.6184409741
N       -1.5185366170   -3.1849009933    6.0992393110
O       -3.0613819479   -4.1629674492    7.4929239228
O       -3.4287620482   -2.4488351647    4.3461276953
H       -5.5031332106   -4.6625400335    0.0490689163
H       -3.2020746761   -5.2580427716    0.7631804770
H       -6.8203618002   -3.0118978287    1.3583375567
H       -1.1686553258   -3.4486388306    2.9624419676
H       -1.7919053594   -4.8014304113    3.9068576242
H       -1.3600543974   -5.0358501972    2.2070111713
H       -6.4789561730   -2.1015207841    4.5403117831
H       -5.4306875881   -0.8305666065    3.9132349796
H       -6.9040106607   -1.2869378684    3.0331596896
H        0.3501901295   -2.8240714480    6.9959191169
H        0.2036293787   -4.4095347894    6.1932367940
H       -0.6406168448   -4.1091544664    7.7301329212
H       -4.6456325902   -3.7144115176    5.4901911922
H       -4.3531059735   -2.1007687495    6.1657900816
H       -1.4350948552   -2.6856153128    5.2225542040
29   
Generated by ForceBalance from scan.xyz: Frame 21 of 24
C       -5.1325399475   -4.0363367425    0.8076865805
C       -3.8895973839   -4.5012939542    1.2440732138
C       -5.8255804897   -3.0865790018    1.5611779431
C       -3.3240264897   -4.0318457443    2.4370977172
C       -5.2934506238   -2.5926386864    2.7597704099
C       -4.0466057502   -3.0833454604    3.1778611770
C       -2.7898474600   -3.4901787436    6.5279127768
C       -1.9751734306   -4.5181746634    2.9093807918
C       -6.0300534929   -1.5638788254    3.5832694553
C       -0.3521265416   -3.3103885030    6.8909211766
C       -3.9373949154   -3.1716781935    5.5703067485
N       -1.5608557801   -3.0929323273    6.1129764231
O       -3.0305914190   -4.0545576560    7.5954048063
O       -3.4795245320   -2.5749393879    4.3457565147
H       -5.5570770271   -4.4095830133   -0.1205522780
H       -3.3484038167   -5.2373254762    0.6541349147
H       -6.7887997577   -2.7174439335    1.2164164870
H       -1.2504728158   -3.6969688965    2.9479902760
H       -2.0246962908   -4.9487664646    3.9141386869
H       -1.5808306984   -5.2807774062    2.2330181677
H       -6.5144255314   -2.0215573451    4.4540293092
H       -5.3465178375   -0.7969956970    3.9586786736
H       -6.8100775945   -1.0776573345    2.9916715831
H        0.1495825367   -2.3604130377    7.1043985604
H        0.3443087928   -3.9685581489    6.3591415359
H       -0.6378157204   -3.7818443628    7.8318591771
H       -4.4718276325   -4.1050038983    5.3716615821
H       -4.6217638394   -2.4889429712    6.0853519232
H       -1.5143787675   -2.6504394889    5.2034202697
29   
Generated by ForceBalance from scan.xyz: Frame 22 of 24
C       -5.1503672062   -3.9746026944    0.7626679955
C       -3.9390090534   -4.5333198732    1.1794298828
C       -5.7828296981   -3.0096122497    1.5490880637
C       -3.3479219851   -4.1399880861    2.3866945340
C       -5.2233152611   -2.5921759846    2.7649459408
C       -4.0107775992   -3.1749404798    3.1615634462
C       -2.7587436954   -3.4918283682    6.5879130611
C       -2.0284231256   -4.7131411024    2.8450578722
C       -5.8981908291   -1.5501392632    3.6242406988
C       -0.3843948343   -3.0055836464    7.0684309712
C       -3.8591471687   -3.4162631415    5.5324946493
N       -1.5473347627   -3.0228247358    6.1956688756
O       -3.0118622680   -3.9661712167    7.6955868496
O       -3.4039078693   -2.7538967515    4.3436652336
H       -5.5970630330   -4.2868783713   -0.1776129577
H       -3.4441548705   -5.2798137907    0.5624831570
H       -6.7201979923   -2.5684859157    1.2177393395
H       -1.2570234820   -3.9363082239    2.8918698910
H       -2.0976685502   -5.1518575433    3.8455115792
H       -1.6834661333   -5.4899320701    2.1579247022
H       -6.4719699359   -2.0138375999    4.4356499231
H       -5.1647373357   -0.8823917094    4.0842138093
H       -6.5948932867   -0.9500140053    3.0329890088
H       -0.0443112182   -1.9797862030    7.2489609060
H        0.4390340370   -3.5814019791    6.6319974264
H       -0.6703284823   -3.4573891957    8.0188372395
H       -4.1779110901   -4.4395026597    5.3075498888
H       -4.7095663054   -2.8835213724    5.9712301247
H       -1.4920318238   -2.6459090035    5.2573268110
29   
Generated by ForceBalance from scan.xyz: Frame 23 of 24
C       -5.3233156168   -3.8172014246    0.7452116740
C       -4.1240696429   -4.4650304810    1.0552229602
C       -5.8397005249   -2.8511676176    1.6107197266
C       -3.4315951666   -4.1631405800    2.2342088847
C       -5.1769831212   -2.5221371596    2.8020087729
C       -3.9822201020   -3.1971197166    3.0917831348
C       -2.6598269618   -3.4350351082    6.5388406946
C       -2.1217710915   -4.8309067979    2.5787117373
C       -5.7265286573   -1.4742427664    3.7404206307
C       -0.3995015623   -2.6170187968    7.1098163063
C       -3.6973304514   -3.5614580335    5.4276863872
N       -1.4983768572   -2.8303443016    6.1814863234
O       -2.9106454402   -3.8839305279    7.6576271419
O       -3.2719090905   -2.8703359167    4.2459198704
H       -5.8491541397   -4.0591203947   -0.1746851907
H       -3.7172630832   -5.2094083467    0.3746922946
H       -6.7656019239   -2.3379969042    1.3607209752
H       -1.3168373162   -4.0942778351    2.6722924563
H       -2.1744273516   -5.3647927429    3.5333911416
H       -1.8382439763   -5.5502017373    1.8062005098
H       -6.3269731995   -1.9279033245    4.5381665736
H       -4.9214798177   -0.9096360433    4.2179154373
H       -6.3734233881   -0.7743404813    3.2046359033
H       -0.2141498884   -1.5475985151    7.2605094585
H        0.5181338857   -3.0882928738    6.7413552190
H       -0.6731163879   -3.0677178952    8.0643146051
H       -3.8443916766   -4.6275412139    5.2206895325
H       -4.6425764713   -3.1551953884    5.8026689671
H       -1.4380448529   -2.4920138277    5.2288380857
29   
Generated by ForceBalance from scan.xyz: Frame 24 of 24
C       -5.4869907085   -3.6677174895    0.8216816876
C       -4.3607347215   -4.4603858151    1.0516548573
C       -5.8314745160   -2.6621566371    1.7289200669
C       -3.5679696359   -4.2708212625    2.1923142856
C       -5.0651051443   -2.4410239619    2.8803594128
C       -3.9467688732   -3.2629836314    3.0922013116
C       -2.5855242456   -3.4904100363    6.5396504465
C       -2.3458240829   -5.1208808129    2.4473989678
C       -5.4133566021   -1.3491685703    3.8638600244
C       -0.6855440832   -2.1109474321    7.3084822852
C       -3.4993797134   -3.8125348878    5.3621797039
N       -1.6445464562   -2.5410818973    6.3032560473
O       -2.7409538441   -4.0836130876    7.6074448001
O       -3.1544132436   -3.0262006310    4.2149256296
H       -6.0894085041   -3.8251168383   -0.0691544485
H       -4.0849853494   -5.2322396777    0.3365825863
H       -6.7007765825   -2.0361841943    1.5410816474
H       -1.5515156896   -4.5406410423    2.9237903874
H       -2.5761049109   -5.9633966541    3.1107810283
H       -1.9614012287   -5.5382939530    1.5128770584
H       -5.8076486656   -1.7596647902    4.8006372385
H       -4.5325915140   -0.7544289160    4.1225004743
H       -6.1742749956   -0.6826575444    3.4497881237
H       -0.7938246884   -1.0414368304    7.5200114774
H        0.3408510709   -2.3058750824    6.9785287785
H       -0.8790226141   -2.6753405582    8.2211906296
H       -3.4056078662   -4.8823692559    5.1461353619
H       -4.5322975350   -3.6189880826    5.6718329596
H       -1.6288310529   -2.1363252264    5.3751313798
