27   

C        2.4506190091    1.0384552167   -0.4425082947
C        1.4321090333    0.2124065549   -0.9018017371
C        0.6507469411   -4.0845348058   -1.5569798634
C        2.2679078359    1.7788021184    0.7258690663
C        1.5952384577   -2.6943461989   -0.0816760992
C        0.4730904664   -2.8253622324   -0.8622485340
C        0.2555277647    0.1343142966   -0.1500409870
C        0.1294020423    0.9621628217    1.0040154695
C        1.8483868476   -4.5990338942   -1.1526397597
C       -0.7348448637   -1.9778032921   -1.0471709078
C       -2.1387382613   -0.1132650697   -0.2078837078
C       -2.1305664879    0.1539150138    1.3009399372
N        1.1316119882    1.7460414453    1.4294835174
N       -0.8344801182   -0.6707926117   -0.5504799055
O       -1.7234988655   -2.4605738505   -1.6018475186
O        2.4461247382   -3.7577186656   -0.2524638339
O       -1.0487629959    1.0080639316    1.7253666859
Br       2.5893402632   -6.2551852466   -1.7435563447
H        3.3854442975    1.1230549018   -0.9832673507
H        1.5511463550   -0.3481440094   -1.8238937669
H       -0.0421266617   -4.5380927392   -2.2590995557
H        3.0734191906    2.4149273812    1.0743086775
H        1.7960242824   -1.8831651666    0.6078647336
H       -2.9616192745   -0.7931848689   -0.4507105989
H       -2.3021478613    0.8194772836   -0.7575756354
H       -3.0821363080    0.6133138943    1.5856694294
H       -2.0541356178   -0.8002484374    1.8323617524
27   

C        2.4625383582    0.9273080662   -0.4423237286
C        1.4287625097    0.1123429745   -0.8860388760
C        0.7507310430   -3.9726018006   -1.7138091830
C        2.2843060901    1.7138247616    0.6955722757
C        1.4512520578   -2.7821613440    0.0481165459
C        0.4406688394   -2.8329804391   -0.8773501237
C        0.2380282423    0.0936246639   -0.1516760347
C        0.1224269933    0.9610250020    0.9746511643
C        1.9178738814   -4.5019966984   -1.2427767684
C       -0.7867114330   -2.0086418702   -1.0270931651
C       -2.1654578508   -0.1158248484   -0.2029902192
C       -2.1474728403    0.1956616080    1.2965828265
N        1.1392714649    1.7340416499    1.3851790006
N       -0.8695491403   -0.6974442103   -0.5386913696
O       -1.7945065342   -2.5112702930   -1.5253022508
O        2.3689761888   -3.7795782136   -0.1690023556
O       -1.0580806013    1.0552800194    1.6869808581
Br       2.7963987039   -6.0364865557   -1.9599945572
H        3.4060225289    0.9676464452   -0.9730619490
H        1.5487270843   -0.4814977882   -1.7867761019
H        0.1602428330   -4.3455013442   -2.5448321720
H        3.1015333528    2.3418177413    1.0312359105
H        1.5209696012   -2.0669475821    0.8600267280
H       -2.9972467231   -0.7933814263   -0.4205737048
H       -2.3226527762    0.8022082625   -0.7785904111
H       -3.0941600059    0.6700628664    1.5727760375
H       -2.0739404377   -0.7425124443    1.8561540484
27   

C        2.4470796661    0.8782833379   -0.4665483314
C        1.4035748456    0.0672174586   -0.8935246692
C        0.8634450210   -3.7965076430   -1.8655008588
C        2.2775247110    1.6924397109    0.6524796898
C        1.3265356065   -2.8657767764    0.1195690725
C        0.4210063895   -2.8098804713   -0.9054660756
C        0.2096546381    0.0805656668   -0.1629250047
C        0.1064664460    0.9720823501    0.9462144460
C        2.0055164450   -4.3484608853   -1.3587816211
C       -0.8359345832   -2.0217124363   -1.0067229410
C       -2.1996073717   -0.1118034979   -0.1918133941
C       -2.1645139213    0.2277146790    1.3007893718
N        1.1323536990    1.7419414489    1.3401324855
N       -0.9099663024   -0.7043722480   -0.5339468969
O       -1.8608175294   -2.5567581415   -1.4279679523
O        2.3132487203   -3.7818237440   -0.1485192737
O       -1.0702108090    1.0935683955    1.6604925800
Br       3.0255161835   -5.7250816683   -2.1985591709
H        3.3915910332    0.8939692542   -0.9967171851
H        1.5208229224   -0.5451625983   -1.7817871829
H        0.3735714308   -4.0632451599   -2.7964714706
H        3.1022220565    2.3178578478    0.9743836494
H        1.2724589135   -2.2769970955    1.0287408209
H       -3.0369409500   -0.7892044521   -0.3871807708
H       -2.3604595930    0.7961502066   -0.7821711438
H       -3.1073198135    0.7088357962    1.5785873472
H       -2.0853111126   -0.6994994292    1.8775382898
27   

C        2.4552355850    0.7963857631   -0.4557071139
C        1.3995301327   -0.0118087235   -0.8566637900
C        0.9701240801   -3.6483998307   -1.8629587585
C        2.2943435046    1.6574673307    0.6283377341
C        1.1914135193   -3.0201275735    0.2780025072
C        0.3974508850   -2.8307478625   -0.8175879479
C        0.2004764726    0.0512890815   -0.1359633704
C        0.1093830713    0.9873083393    0.9376256782
C        2.0767179898   -4.2423609674   -1.3251234257
C       -0.8776963695   -2.0641840818   -0.8981090442
C       -2.2139323740   -0.1033386018   -0.1589550648
C       -2.1722697544    0.2925491679    1.3190304855
N        1.1465598454    1.7548656271    1.3061309011
N       -0.9336734734   -0.7269788462   -0.4819241615
O       -1.9176971618   -2.6248877223   -1.2379990768
O        2.2370264925   -3.8594518937   -0.0176980562
O       -1.0668423505    1.1578290360    1.6424464954
Br       3.2323263763   -5.4479870581   -2.2479316253
H        3.4027348280    0.7733188474   -0.9801733504
H        1.5139817159   -0.6572712927   -1.7209419630
H        0.5883336563   -3.7840653682   -2.8695484078
H        3.1284829243    2.2806584346    0.9295422247
H        1.0189650249   -2.5749889434    1.2517752811
H       -3.0620770146   -0.7742832439   -0.3278021104
H       -2.3628151018    0.7838887069   -0.7829897050
H       -3.1082809708    0.7963435580    1.5790036741
H       -2.1036256354   -0.6124598292    1.9312249485
27   

C        2.4392080413    0.7515257005   -0.4962580914
C        1.3671905033   -0.0478638418   -0.8706581059
C        1.0042183638   -3.4868658231   -1.8597472696
C        2.3018963308    1.6374890398    0.5705903176
C        1.0684362295   -3.1764234084    0.3602748619
C        0.3463587292   -2.8394739172   -0.7468406872
C        0.1758631004    0.0483562012   -0.1412411325
C        0.1099773570    1.0081942422    0.9134690234
C        2.0872966829   -4.1370610772   -1.3391412412
C       -0.9420306558   -2.0837557990   -0.7849409179
C       -2.2392644003   -0.0645923378   -0.1387280387
C       -2.1798993209    0.3608085060    1.3300077448
N        1.1619737841    1.7677975194    1.2558368294
N       -0.9738260731   -0.7212094185   -0.4560737315
O       -2.0006725493   -2.6673462019   -1.0039991188
O        2.1514070990   -3.9483406515    0.0180544348
O       -1.0562922828    1.2122509808    1.6262009008
Br       3.3312789491   -5.1751632930   -2.3467243315
H        3.3814671331    0.7019211919   -1.0281756743
H        1.4642913995   -0.7108600999   -1.7227755019
H        0.6942327379   -3.4796848197   -2.8994226386
H        3.1485477703    2.2533679084    0.8511956706
H        0.8205253948   -2.8811706828    1.3738287228
H       -3.1035581448   -0.7184718815   -0.2913384085
H       -2.3725517780    0.8129281660   -0.7798001585
H       -3.1043778548    0.8876391673    1.5854547260
H       -2.1236075887   -0.5323218971    1.9606118393
27   

C        2.4465559193    0.6688633826   -0.5517156823
C        1.3511232692   -0.1112432329   -0.8984797552
C        0.9548068551   -3.3909697540   -1.8470172889
C        2.3461510462    1.5711113115    0.5054904291
C        0.9707426780   -3.3846212515    0.3945674313
C        0.2776698084   -2.8912907385   -0.6699280488
C        0.1750926763    0.0193804285   -0.1516144334
C        0.1468944083    0.9953815464    0.8905031270
C        2.0216562121   -4.1159611245   -1.3966901946
C       -1.0047449091   -2.1208092699   -0.6272724720
C       -2.2360568380   -0.0230435408   -0.1241259788
C       -2.1584527207    0.4214745184    1.3376302089
N        1.2203041270    1.7364855670    1.2059526663
N       -0.9958101272   -0.7315594779   -0.4305169842
O       -2.0853172415   -2.7023094449   -0.6733534962
O        2.0556364232   -4.1143990310   -0.0257294908
O       -1.0039333955    1.2369844122    1.6171839178
Br       3.2829440648   -5.0160426763   -2.5099043487
H        3.3788896693    0.5914910864   -1.0975302468
H        1.4189022686   -0.7841456275   -1.7440810424
H        0.6702495162   -3.2400670797   -2.8829320687
H        3.2106005343    2.1713408470    0.7649039256
H        0.7011920264   -3.2284477458    1.4332201589
H       -3.1258829554   -0.6427690476   -0.2723216592
H       -2.3346755891    0.8498272057   -0.7777474573
H       -3.0627621437    0.9852355212    1.5862587806
H       -2.1329602183   -0.4636348053    1.9814323940
27   

C        2.2240205834    1.6210837468   -0.0995979325
C        1.5560585952    0.4458027686    0.2187981664
C        1.0652360943   -1.6666914329   -2.3015767474
C        1.4983155705    2.7432711792   -0.4953600764
C        2.0106590930   -2.8991593359   -0.6836494761
C        0.8692632937   -2.2134426087   -0.9767355599
C        0.1611888151    0.4211442058    0.1095312158
C       -0.5055612510    1.6255128628   -0.2674128388
C        2.3086708929   -2.0668809004   -2.7008765405
C       -0.3122911924   -2.0128148807   -0.0843297102
C       -1.9322637609   -0.4354660189    0.9457385023
C       -2.6275770539    0.4885000713   -0.0569653697
N        0.1640181648    2.7485238569   -0.5704380455
N       -0.6057146493   -0.7331355295    0.4114926276
O       -1.1123461569   -2.9198301643    0.1307817775
O        2.9051867528   -2.8219534542   -1.7225712886
O       -1.8850673183    1.6951896910   -0.3203017174
Br       3.1144925028   -1.6318340211   -4.3745059773
H        3.3038201325    1.6806845470   -0.0396356671
H        2.1162867465   -0.4179296831    0.5551538225
H        0.3718156133   -1.0549886861   -2.8691549789
H        2.0345036119    3.6520913787   -0.7431686709
H        2.1934131521   -3.4260273494    0.2463577160
H       -1.8384675843    0.0639452871    1.9155275441
H       -2.5392598601   -1.3333821152    1.0974663301
H       -2.7755728089   -0.0502037452   -0.9986128624
H       -3.6157899908    0.7547195695    0.3301858651
27   

C        2.1173030492    1.7050625169   -0.3748035137
C        1.4903545434    0.5031897749   -0.0732534913
C        0.8148835848   -1.3976081371   -2.5511663435
C        1.3514451674    2.8494499313   -0.5891034737
C        1.7751605004   -2.9532407808   -1.2477093795
C        0.6989997579   -2.1155184366   -1.2998871418
C        0.0917572169    0.4759256424   -0.0152742118
C       -0.6127787816    1.7014041540   -0.2121405554
C        1.9528088654   -1.8571709731   -3.1510761348
C       -0.3403489719   -1.9698123172   -0.2406036901
C       -1.8971442237   -0.4665143322    0.9828961158
C       -2.6960681541    0.5332211286    0.1431456364
N        0.0177927515    2.8499433617   -0.5032463619
N       -0.6327333206   -0.7049039025    0.2915099768
O       -1.0294220677   -2.9255795242    0.1109736875
O        2.5568738530   -2.8085630582   -2.3677232717
O       -1.9880606630    1.7652568193   -0.0934533686
Br       2.6209581639   -1.2574518456   -4.8343794501
H        3.1966125207    1.7676527259   -0.4404694122
H        2.0863063916   -0.3807490350    0.1212016776
H        0.1420740679   -0.6402035909   -2.9397936826
H        1.8557167554    3.7792614090   -0.8258078342
H        1.9889509437   -3.6348972111   -0.4317504258
H       -1.7042722293   -0.0535001532    1.9783193175
H       -2.4858912177   -1.3799378939    1.1124048262
H       -2.9430696700    0.0760004381   -0.8205119344
H       -3.6377076647    0.7552769308    0.6544117703
27   

C        2.0315360895    2.2310343154    0.4006909364
C        1.5858828531    0.9195288474    0.4996539694
C        1.8425914383   -0.8168885452   -2.0658998643
C        1.1289374191    3.2459584540    0.0884209240
C        2.6322404356   -2.5340160297   -0.8506429574
C        1.5436619145   -1.7172730717   -0.9719578377
C        0.2325420714    0.6545391046    0.2576285145
C       -0.6295003859    1.7574748714   -0.0188934804
C        3.0906299369   -1.1541586453   -2.5073186725
C        0.3290972189   -1.8118124319   -0.1172267022
C       -1.7098573706   -0.6947645384    0.7615252653
C       -2.4927506501    0.2302916252   -0.1740722084
N       -0.1725416111    3.0161934763   -0.1106712161
N       -0.3103068313   -0.6529287385    0.3469621316
O       -0.1856667723   -2.9017984157    0.1307515879
O        3.5930749062   -2.1997599711   -1.7737868712
O       -1.9892627055    1.5798587412   -0.1882291471
Br       4.0138333660   -0.2930874598   -3.9376866814
H        3.0725766082    2.4781813702    0.5689653775
H        2.2809550037    0.1320096912    0.7682684167
H        1.2111833839   -0.0279777514   -2.4615672202
H        1.4929437459    4.2640816421    0.0123123255
H        2.7268811931   -3.3348184336   -0.1252394577
H       -1.8018339277   -0.3506412895    1.7967883902
H       -2.1336406325   -1.7023803630    0.7063516626
H       -2.4535473862   -0.1719418120   -1.1915867892
H       -3.5423065759    0.2441161258    0.1352163133
27   

C        2.2407972074    1.7141410257    0.3008469158
C        1.5917993892    0.5141745032    0.5608381644
C        1.9438689622   -1.6859269994   -1.5296257883
C        1.5484141788    2.7548372798   -0.3159790885
C        2.0959533606   -3.4443754315   -0.1382302824
C        1.3037925951   -2.3655411756   -0.4213422423
C        0.2545356689    0.3814400581    0.1691513017
C       -0.3901432359    1.5095467840   -0.4197483354
C        3.0791460987   -2.3931812050   -1.8074928627
C        0.0222769917   -2.1031460243    0.2842891723
C       -1.9146144747   -0.5844936156    0.6208934002
C       -2.4339936956    0.2324131805   -0.5657671224
N        0.2613125053    2.6575849337   -0.6631142190
N       -0.4869404977   -0.8026095147    0.4084437211
O       -0.6524201854   -3.0356222783    0.7230644259
O        3.1944256405   -3.4684642967   -0.9628947393
O       -1.7313805015    1.4765962525   -0.7503356946
Br       4.3305494119   -1.9554114229   -3.1794497054
H        3.2786158587    1.8555098040    0.5767653349
H        2.1186675792   -0.2900639404    1.0628293002
H        1.5995106815   -0.7973758155   -2.0488195484
H        2.0698074169    3.6840494204   -0.5149283160
H        1.8861494332   -4.1824729292    0.6285613570
H       -2.0728874503   -0.0366446437    1.5555041812
H       -2.4755574054   -1.5223503052    0.6831643939
H       -2.3409479262   -0.3636723818   -1.4793739970
H       -3.4974700784    0.4418661698   -0.4154422864
27   

C        2.0926425539    2.0891500910    0.5865040180
C        1.5539474147    0.8216008437    0.7655931561
C        2.1850587036   -1.2428653004   -1.3676162037
C        1.3159853578    3.0957883436    0.0147264984
C        2.2635820606   -3.2101070061   -0.2842429381
C        1.5226408873   -2.0611816056   -0.3701565069
C        0.2414868743    0.5898443117    0.3387140680
C       -0.4972782545    1.6862619909   -0.1967448886
C        3.2849545742   -1.9452424032   -1.7715043838
C        0.2394416862   -1.9101261312    0.3632556101
C       -1.8340293517   -0.5905726646    0.7101502076
C       -2.4167699197    0.2410854436   -0.4366561534
N        0.0487123964    2.9010991526   -0.3631317565
N       -0.3913237543   -0.6665129155    0.5041144531
O       -0.3231616892   -2.8980220499    0.8392607729
O        3.3567341678   -3.1466153228   -1.1136799300
O       -1.8268340451    1.5508829314   -0.5479457916
Br       4.5394441231   -1.3519276990   -3.0808669539
H        3.1082123736    2.3093611032    0.8919752757
H        2.1439069173    0.0403270430    1.2330862151
H        1.8760937097   -0.2741074136   -1.7461779853
H        1.7516121111    4.0789836238   -0.1209811912
H        2.0210908965   -4.0599200280    0.3450853032
H       -2.0490549107   -0.1132973935    1.6717488298
H       -2.3055133425   -1.5785460116    0.7113694286
H       -2.2655420800   -0.2936846148   -1.3799154485
H       -3.4956197453    0.3468668422   -0.2869435502
27   

C        2.3488990163    1.8457773452   -0.4836962128
C        1.5361548162    0.7899000669   -0.8766159544
C        2.1647753080   -1.9203341949    0.3418846678
C        1.9240157980    2.7056981700    0.5286543599
C        1.3887264879   -3.6127286648   -0.9143624988
C        1.0961087892   -2.3214185667   -0.5555801647
C        0.3162696299    0.6104557314   -0.2163923425
C       -0.0637481807    1.5625891154    0.7747092543
C        3.0297428051   -2.9755560469    0.4082426654
C       -0.2114801005   -1.7240833468   -0.9375628832
C       -1.9885520219   -0.0786276093   -0.4037700615
C       -2.1674100479    0.4045236068    1.0394025856
N        0.7427919680    2.5713461246    1.1399372785
N       -0.5811630509   -0.4230803670   -0.5727724350
O       -1.0283310265   -2.3917337384   -1.5756158390
O        2.5799662707   -4.0157354731   -0.3625646109
O       -1.3018422667    1.5036915095    1.3860946561
Br       4.6254811465   -3.0154531602    1.4535222221
H        3.3076471633    2.0156128141   -0.9581884971
H        1.8456492797    0.1284454068   -1.6793381823
H        2.2682981681   -0.9926810953    0.8936645347
H        2.5708663626    3.5227550365    0.8267588860
H        0.7654246292   -4.2424223642   -1.5406082438
H       -2.6484087557   -0.9339934028   -0.5811638076
H       -2.2663323751    0.7136173650   -1.1065840258
H       -3.2081722758    0.7092890107    1.1859945669
H       -1.9683280554   -0.4274244706    1.7226343161
27   

C        2.3750420655    1.7406367419   -0.4535419169
C        1.5419438652    0.6953405792   -0.8306746525
C        2.0452115091   -1.9952591108    0.4807016850
C        1.9546698998    2.6414110174    0.5238571971
C        1.4925105914   -3.5225807487   -1.0722985548
C        1.0552101383   -2.3484953684   -0.5185140411
C        0.3036122310    0.5673047719   -0.1913965170
C       -0.0663399885    1.5570287652    0.7668548970
C        3.0110177167   -2.9596167714    0.4217927700
C       -0.2666874435   -1.7698734242   -0.8720753403
C       -2.0168928133   -0.0814903738   -0.3750851480
C       -2.1926057132    0.4486005533    1.0512785968
N        0.7597170648    2.5554911884    1.1166061654
N       -0.6150800837   -0.4557534693   -0.5315166897
O       -1.1103521121   -2.4572747123   -1.4506326085
O        2.6969816357   -3.8974462009   -0.5285047583
O       -1.3122514553    1.5453838511    1.3643028973
Br       4.5715617104   -3.0107685107    1.5182784531
H        3.3466582175    1.8705465231   -0.9142722160
H        1.8519016195    0.0057077491   -1.6086928496
H        2.0316466197   -1.1509259765    1.1620130854
H        2.6173661282    3.4502561455    0.8092735925
H        0.9610807146   -4.0872183927   -1.8311161366
H       -2.6921435454   -0.9295608069   -0.5274300415
H       -2.2796175451    0.6934958468   -1.1024578267
H       -3.2290679891    0.7732387100    1.1849952176
H       -2.0073810383   -0.3641808415    1.7609676683
27   

C        2.4641033139    1.3595790623   -0.3494423783
C        1.5432634355    0.4007342538   -0.7511628263
C        1.7875276044   -2.3404900124    0.5763702802
C        2.1236785356    2.2682986625    0.6511807507
C        1.3228314152   -3.6176222767   -1.2136926912
C        0.8356822240   -2.5612609668   -0.4937184315
C        0.2975869946    0.3649067539   -0.1137182132
C        0.0164718794    1.3570244374    0.8720465832
C        2.7806279575   -3.2620103011    0.4007787422
C       -0.4657813573   -1.9123995073   -0.8005690969
C       -2.0704841722   -0.0854250907   -0.2923929398
C       -2.1913571702    0.4195550401    1.1483132723
N        0.9259131116    2.2712826936    1.2444214255
N       -0.7053753307   -0.5706788913   -0.4712073088
O       -1.3866784194   -2.5618310757   -1.2979353571
O        2.5189817254   -4.0481933207   -0.6929943629
O       -1.2228422588    1.4338659243    1.4782486156
Br       4.3163008102   -3.4394947215    1.5188689881
H        3.4437473808    1.4154723283   -0.8080893451
H        1.7940352214   -0.2928238871   -1.5464425370
H        1.7327992106   -1.6007310333    1.3684748810
H        2.8544289364    3.0086554006    0.9557178923
H        0.8325527692   -4.0586550406   -2.0750242254
H       -2.8171814216   -0.8676659389   -0.4616700163
H       -2.2719915023    0.7282951858   -0.9966225691
H       -3.1970112022    0.8231055711    1.3008191671
H       -2.0664356059   -0.4236808377    1.8353356464
27   

C        2.4178634813    1.6201613602   -0.2759092495
C        1.5957091907    0.5608860797   -0.6369641801
C        1.8398090080   -2.0311725113    1.0672403384
C        1.9366606429    2.6071445314    0.5822492285
C        1.8319544537   -3.2759625070   -0.8033629504
C        1.0768531548   -2.3677677302   -0.1165150068
C        0.3025020336    0.5074063464   -0.1028307715
C       -0.1220247220    1.5791602486    0.7382124194
C        2.9972230457   -2.7530516023    0.9931173695
C       -0.2577527185   -1.8825736840   -0.5610110395
C       -2.0114788428   -0.1283520460   -0.4042289308
C       -2.2806961989    0.5207469989    0.9559744657
N        0.6937681331    2.5909949370    1.0733344083
N       -0.6080014018   -0.5310336344   -0.4270954862
O       -1.1085647162   -2.6669856154   -0.9798521902
O        3.0138856368   -3.5179147428   -0.1463980859
O       -1.4101701271    1.6339206064    1.2349618598
Br       4.4002377391   -2.7047530065    2.2849828914
H        3.4287922442    1.6938609894   -0.6576872685
H        1.9591131456   -0.1933761558   -1.3257397276
H        1.5596120373   -1.3432947335    1.8583881498
H        2.5915554335    3.4261949198    0.8563582292
H        1.5406996365   -3.7409714576   -1.7389839976
H       -2.6925252335   -0.9746511810   -0.5380287090
H       -2.2064649216    0.5873368130   -1.2094676888
H       -3.3194633778    0.8633847450    0.9875464545
H       -2.1566061302   -0.2303428173    1.7428062756
27   

C        2.4516107022    1.2269468645    0.3477020554
C        1.5720378340    0.2347687960   -0.0651344881
C        0.9878006725   -2.0970265194    2.0393594737
C        1.9573606470    2.3801775907    0.9542271365
C        1.4097770378   -3.4085873868    0.2666026006
C        0.5313179284   -2.4659790496    0.7164593656
C        0.2031573129    0.4185028540    0.1641532765
C       -0.2197466449    1.6452057064    0.7585085471
C        2.1062317079   -2.8436388514    2.2794226147
C       -0.6277457944   -1.9230713458   -0.0486464584
C       -2.0653435601    0.0354713347   -0.5756975324
C       -2.5120986518    0.9020490909    0.6042978292
N        0.6517297946    2.5882523425    1.1492709500
N       -0.7678288107   -0.5386674983   -0.2287238104
O       -1.5308834224   -2.6584041054   -0.4430041028
O        2.3829163839   -3.6514509905    1.2049269785
O       -1.5595748851    1.9278164202    0.9444142573
Br       3.1486154958   -2.7706626266    3.8755762650
H        3.5192034727    1.1199215384    0.1996154599
H        1.9531036841   -0.6496264968   -0.5620885496
H        0.5419227634   -1.3699406395    2.7101101370
H        2.6570371828    3.1442238820    1.2729031804
H        1.3527848585   -3.8948909661   -0.7010802861
H       -2.8255548313   -0.7272321096   -0.7708904309
H       -1.9714560525    0.6474436907   -1.4786496121
H       -3.4696427890    1.3713995855    0.3589335976
H       -2.6717752408    0.2629741700    1.4788188862
27   

C        2.4934899088    1.2183870604   -0.1360593434
C        1.5545665073    0.2843756323   -0.5542893536
C        1.2652666888   -2.4187202852    1.3542943704
C        2.1119898681    2.2426195580    0.7288448928
C        1.5458415046   -3.2071001642   -0.7267317654
C        0.6610800771   -2.5118927374    0.0432518535
C        0.2459976678    0.3919944145   -0.0703570819
C       -0.0677838364    1.4926067582    0.7824299396
C        2.4654919725   -3.0652544427    1.2695203932
C       -0.6336252736   -1.9108334344   -0.3984702757
C       -2.1095423115    0.0860023647   -0.4850263433
C       -2.3600592751    0.7331937836    0.8791517584
N        0.8589572568    2.3816938479    1.1722595747
N       -0.7792432626   -0.5156278098   -0.4399068629
O       -1.6230648122   -2.6072845595   -0.6105624752
O        2.6567769192   -3.5544357609    0.0017615205
O       -1.3566070847    1.7044683115    1.2349957640
Br       3.7112255409   -3.2545516822    2.7019859591
H        3.5201289085    1.1659025558   -0.4771920326
H        1.8422356652   -0.4947353878   -1.2494972574
H        0.8573701116   -1.9293285993    2.2325197459
H        2.8571546215    2.9620230408    1.0482938751
H        1.3991080980   -3.4454007178   -1.7743896547
H       -2.8978376349   -0.6437598400   -0.6942125803
H       -2.1476291503    0.8441006317   -1.2740415673
H       -3.3399556955    1.2200084974    0.8676940470
H       -2.3874843034   -0.0469635983    1.6468883470
27   

C        2.3742124012    1.0106746440    0.2920803588
C        1.5191976862   -0.0444867492    0.5825433906
C        1.8559349445   -3.4650502847    0.5832674418
C        1.8987092787    2.1103274456   -0.4195928926
C        1.3593169734   -2.8847797976   -1.5242594599
C        0.8600787442   -2.8361563108   -0.2572634838
C        0.1981277851    0.0214555779    0.1260966542
C       -0.2157832763    1.2020745933   -0.5625220457
C        2.8900182496   -3.8100836903   -0.2402613035
C       -0.5006478667   -2.3680094688    0.1542464646
C       -2.1201893872   -0.5190828779    0.5126478282
C       -2.4467225993    0.2890163607   -0.7446124574
N        0.6311565943    2.2078146178   -0.8310960870
N       -0.7493811343   -1.0047874619    0.3746107781
O       -1.4402620728   -3.1560445216    0.2176174318
O        2.6099446157   -3.4522755800   -1.5341795698
O       -1.5249906409    1.3729225490   -0.9719474203
Br       4.4942530194   -4.6776888971    0.3200346169
H        3.4069771885    0.9948963237    0.6181082630
H        1.8800194351   -0.8806626728    1.1682502242
H        1.7953672653   -3.6463629343    1.6511255681
H        2.5790325540    2.9248525774   -0.6399401770
H        0.8394743786   -2.5295723452   -2.4071176448
H       -2.1995454103    0.1175938013    1.3998882449
H       -2.8472732133   -1.3290417310    0.6272263860
H       -2.4335758646   -0.3771045183   -1.6133240935
H       -3.4591913679    0.6940969253   -0.6538667235
27   

C        2.3640862333    1.0448700521    0.2493009336
C        1.5163347823   -0.0099383994    0.5608951132
C        1.8408213458   -3.5912253791    0.5773946926
C        1.8794756678    2.1298609389   -0.4786096406
C        1.3704276319   -2.7278819763   -1.4382702664
C        0.8732864465   -2.8208125590   -0.1714222059
C        0.1919332954    0.0420693039    0.1093605662
C       -0.2307596133    1.2075532467   -0.5984976476
C        2.8581257674   -3.8750798049   -0.2894332776
C       -0.4637155455   -2.3542933068    0.3054128386
C       -2.1280734329   -0.5183270643    0.4965354116
C       -2.4493903459    0.2683924875   -0.7760660147
N        0.6099638053    2.2127509889   -0.8877785047
N       -0.7480136944   -0.9838417597    0.3872987188
O       -1.3606336980   -3.1623726954    0.5332638816
O        2.5947346293   -3.3436156638   -1.5263468108
O       -1.5415672239    1.3625869687   -1.0077881407
Br       4.4204064824   -4.8803346513    0.1454361258
H        3.3981573133    1.0402325021    0.5716748623
H        1.8854290717   -0.8363673837    1.1574274868
H        1.7704088814   -3.9031917505    1.6141123452
H        2.5543701399    2.9444610311   -0.7148475764
H        0.8674279706   -2.2400517509   -2.2658802386
H       -2.2331945739    0.1269823176    1.3747738515
H       -2.8429880546   -1.3400510451    0.6038737762
H       -2.4145678105   -0.4089093313   -1.6354579168
H       -3.4690110875    0.6592397906   -0.7047901369
27   

C        2.3411770743    1.1573238478    0.2379919624
C        1.5410757350    0.0701515561    0.5641010731
C        1.9141767477   -3.7086745485    0.5202846026
C        1.8076111620    2.2122531870   -0.5002012352
C        1.5425922255   -2.5238128568   -1.3466547309
C        0.9999725157   -2.7914229945   -0.1217265165
C        0.2141482054    0.0608030249    0.1165522415
C       -0.2613842078    1.1984982285   -0.6021547221
C        2.9465545452   -3.8990893669   -0.3540974396
C       -0.3251580783   -2.3569610362    0.4030609338
C       -2.0785914980   -0.5993991583    0.5181977889
C       -2.4360108457    0.1595031699   -0.7621252633
N        0.5345116520    2.2351592220   -0.9063937325
N       -0.6784767998   -1.0006713720    0.4135104736
O       -1.1619095309   -3.1917576508    0.7413747121
O        2.7439514406   -3.1709528430   -1.4988496443
O       -1.5791744472    1.2913072492   -1.0073341725
Br       4.4527916511   -5.0284196880   -0.0436068620
H        3.3753630920    1.2014515548    0.5571544650
H        1.9469046494   -0.7350755190    1.1671010193
H        1.7973558989   -4.1734967251    1.4937755190
H        2.4457032161    3.0527615158   -0.7477159435
H        1.0865962569   -1.8920009304   -2.1009769630
H       -2.2152781288    0.0476593060    1.3907741242
H       -2.7529881868   -1.4542533696    0.6297301496
H       -2.3710882102   -0.5242549562   -1.6146478586
H       -3.4724002917    0.5041233488   -0.6939606266
27   

C        2.3234814494    1.2304483900    0.2731013174
C        1.5415234599    0.1364713695    0.6206532573
C        1.8347790851   -3.8714451190    0.4977180330
C        1.7807265633    2.2482136000   -0.5100934646
C        1.6851612884   -2.3900706727   -1.1768883568
C        1.0395456683   -2.7889220987   -0.0376400848
C        0.2248538148    0.0837923686    0.1484201111
C       -0.2636637582    1.1860236706   -0.6145203008
C        2.9018901289   -4.0229633425   -0.3413631214
C       -0.2665460633   -2.3354370951    0.5099079826
C       -2.0557938661   -0.6123985544    0.5438525947
C       -2.4143380597    0.0956356060   -0.7655353963
N        0.5151966818    2.2289785031   -0.9399737643
N       -0.6470591939   -0.9872820636    0.4644860528
O       -1.0741326823   -3.1634821626    0.9297254437
O        2.8352103012   -3.1152169412   -1.3670607838
O       -1.5765746643    1.2348803129   -1.0427732456
Br       4.2847417927   -5.3213615542   -0.1349789214
H        3.3501809733    1.3090754531    0.6094526038
H        1.9504936193   -0.6430781551    1.2553284281
H        1.6167687945   -4.4633653734    1.3808565675
H        2.4046464895    3.0941389427   -0.7747240596
H        1.3358342152   -1.6142393783   -1.8493729639
H       -2.2147426908    0.0602896718    1.3929706228
H       -2.7127701101   -1.4778084870    0.6765784054
H       -2.3278459065   -0.6158886151   -1.5931167038
H       -3.4578515513    0.4219661907   -0.7194878922
27   

C        2.3248871050    1.2860461742    0.2623142750
C        1.5567048545    0.1861847163    0.6227852100
C        1.7187394608   -4.0226433101    0.3245403310
C        1.7737431884    2.2806069516   -0.5453162477
C        1.8085125264   -2.3033146436   -1.1065353859
C        1.0554591213   -2.7994676703   -0.0735383783
C        0.2471857107    0.1047678557    0.1369598142
C       -0.2534733280    1.1859151566   -0.6471439704
C        2.8147201374   -4.1567628439   -0.4786976148
C       -0.2168325830   -2.3180848574    0.5247686698
C       -2.0201930104   -0.6121417898    0.5472845356
C       -2.3923904120    0.0675180112   -0.7739281037
N        0.5124121355    2.2341740558   -0.9857246734
N       -0.6085441933   -0.9736461238    0.4641606431
O       -0.9953176843   -3.1315269204    1.0235448904
O        2.8931543572   -3.1067484627   -1.3560065644
O       -1.5654243905    1.2076848971   -1.0809688293
Br       4.0578765213   -5.6026136391   -0.4083800955
H        3.3469285003    1.3876430919    0.6066725040
H        1.9682775598   -0.5783889471    1.2742454259
H        1.3974466254   -4.7103607487    1.1005205316
H        2.3869439551    3.1308872382   -0.8208409227
H        1.5810021365   -1.4070046133   -1.6726259881
H       -2.1806712275    0.0746208201    1.3847893974
H       -2.6666988262   -1.4822326190    0.6998333031
H       -2.3056422567   -0.6599616598   -1.5875280667
H       -3.4382616990    0.3862332188   -0.7277785418
27   

C        2.2772115325    1.3652825000    0.3159031210
C        1.5272177076    0.2537263938    0.6803107841
C        1.5718502457   -4.1351308652    0.1215576577
C        1.7249283919    2.3253663113   -0.5326453670
C        1.9465048221   -2.2315432402   -0.9905979282
C        1.0577642164   -2.8005211823   -0.1117688077
C        0.2380860078    0.1259067310    0.1539208926
C       -0.2702856841    1.1769019545   -0.6645208263
C        2.7133343370   -4.2589936736   -0.6160972301
C       -0.1921616792   -2.3076855345    0.5259105968
C       -2.0133747551   -0.6239669644    0.5537593265
C       -2.3897111765    0.0175308272   -0.7859815190
N        0.4781413254    2.2363561590   -1.0069503566
N       -0.5967485021   -0.9661917466    0.4800044747
O       -0.9485438457   -3.1192320802    1.0621617301
O        2.9636366946   -3.0995326668   -1.3004093478
O       -1.5736578233    1.1576695808   -1.1244774625
Br       3.8064810888   -5.8209184612   -0.6964958043
H        3.2855170097    1.5028074742    0.6872280334
H        1.9349392967   -0.4876091870    1.3606378303
H        1.1278976463   -4.8964598472    0.7556293234
H        2.3241163823    3.1842369497   -0.8123345806
H        1.8658647629   -1.2408126544   -1.4214178448
H       -2.1847908034    0.0812942448    1.3735853512
H       -2.6477811885   -1.4989442602    0.7277605802
H       -2.2946746951   -0.7307701434   -1.5795200332
H       -3.4389102241    0.3264964395   -0.7496839632
27   

C        2.2431350798    1.4644290935    0.3598311621
C        1.5129638035    0.3467837552    0.7467104799
C        1.4453633261   -4.2049261594   -0.0256017041
C        1.6985902231    2.3636365602   -0.5583382321
C        2.1135462997   -2.2182404607   -0.7984640626
C        1.0918125494   -2.7991277640   -0.0861505554
C        0.2560220926    0.1496799878    0.1688507011
C       -0.2532370968    1.1463259140   -0.7137694024
C        2.6255306845   -4.3545378834   -0.6929038907
C       -0.1399917539   -2.2859837211    0.5757855766
C       -1.9806064976   -0.6278545242    0.5584717405
C       -2.3486880550   -0.0607966015   -0.8175223796
N        0.4757731454    2.2122356117   -1.0773023710
N       -0.5580475078   -0.9489687138    0.5161800845
O       -0.8783715200   -3.0868508506    1.1523681256
O        3.0528971478   -3.1464778109   -1.1726365971
O       -1.5414882232    1.0693382422   -1.2096783290
Br       3.5537485902   -6.0046746409   -0.9309334007
H        3.2295106233    1.6536976620    0.7656327649
H        1.9103529391   -0.3493833767    1.4788868872
H        0.8767814334   -4.9931285573    0.4585877650
H        2.2824743153    3.2270591127   -0.8558340148
H        2.1909714926   -1.1772906592   -1.0815769609
H       -2.1725092733    0.1151331276    1.3395679802
H       -2.6031268137   -1.5029585629    0.7706778676
H       -2.2370653695   -0.8487255907   -1.5693931301
H       -3.4016424999    0.2372971017   -0.8082512068
