15   
Generated by ForceBalance from scan.xyz: Frame 1 of 24
C        1.8716001882   -1.0773061938   -0.1320049436
C        3.0666059620   -1.0442936189    0.5962053211
C        0.6459099695   -1.0968388683    0.5383831505
C        3.0408355766   -1.0293295041    1.9905648241
C        0.6075961736   -1.0850376973    1.9355470005
C        1.8057273779   -1.0534805338    2.6608932112
O        2.3121740614    0.3504506221    5.0401319164
P        1.8490833417   -0.9289311173    4.4640412110
Cl      -0.0259702556   -1.5073790099    5.1114234674
Cl       3.0208900065   -2.5358091248    5.0508390828
H        1.8974149610   -1.0895390780   -1.2182718874
H        4.0213463752   -1.0289845389    0.0783391779
H       -0.2842243852   -1.1232922096   -0.0221435597
H        3.9726127507   -1.0027669460    2.5482457897
H       -0.3482036414   -1.1069779790    2.4477536592
15   
Generated by ForceBalance from scan.xyz: Frame 2 of 24
C        1.8625086786   -1.0796411661   -0.1151172281
C        3.0701719906   -1.1530151768    0.5865945566
C        0.6518225753   -1.0086611628    0.5807177656
C        3.0720863572   -1.1565285839    1.9825085540
C        0.6421746043   -1.0120081756    1.9771730793
C        1.8544745864   -1.0950061908    2.6782604457
O        2.0332262959    0.4296955394    5.0349030973
P        1.8753167094   -0.9306159375    4.4796342792
Cl       0.1520241064   -1.8783523385    5.1227470138
Cl       3.3531487087   -2.2379297028    5.1064366198
H        1.8651079748   -1.0799274350   -1.2017356088
H        4.0128367275   -1.2083208673    0.0495915844
H       -0.2880985694   -0.9515347541    0.0391258551
H        4.0136373088   -1.2183267789    2.5191936920
H       -0.3024788856   -0.9618410001    2.5090449132
15   
Generated by ForceBalance from scan.xyz: Frame 3 of 24
C        1.8531888397   -1.0571706861   -0.1046753011
C        3.0632114027   -1.2244011858    0.5742995471
C        0.6621380818   -0.9018247452    0.6132933884
C        3.0901576512   -1.2392105217    1.9712720943
C        0.6778183266   -0.9143289172    2.0082195076
C        1.8940332395   -1.0954200865    2.6878358030
O        1.7412683540    0.4265727389    5.0441613188
P        1.8823554249   -0.9357136795    4.4890422948
Cl       0.3673116143   -2.2081304442    5.1029874070
Cl       3.5792773811   -1.9184546204    5.1417700326
H        1.8368908708   -1.0481667924   -1.1911390246
H        3.9897862642   -1.3439708139    0.0200335617
H       -0.2798638397   -0.7690644543    0.0888536126
H        4.0333384362   -1.3737577480    2.4901697940
H       -0.2505413378   -0.7938467393    2.5586833774
15   
Generated by ForceBalance from scan.xyz: Frame 4 of 24
C        1.8421799896   -1.0681384616   -0.1097296506
C        3.0458976785   -1.3044842665    0.5590467344
C        0.6715410491   -0.8235754480    0.6180637656
C        3.0869421336   -1.3026731847    1.9563192986
C        0.7019638793   -0.8140758742    2.0121678348
C        1.9121119525   -1.0675169061    2.6816693775
O        1.4698642342    0.3900579013    5.0320614062
P        1.8729363283   -0.9208270520    4.4818736398
Cl       0.6078217776   -2.4475934509    5.0851095008
Cl       3.7145182738   -1.5761023537    5.1479150212
H        1.8147798395   -1.0721518458   -1.1960207671
H        3.9569599861   -1.4897165369   -0.0028443581
H       -0.2647770934   -0.6347273853    0.1006897887
H        4.0244723031   -1.4901499275    2.4683479580
H       -0.2072170876   -0.6144973878    2.5723272909
15   
Generated by ForceBalance from scan.xyz: Frame 5 of 24
C        1.8615033058   -1.0663202676   -0.0920271824
C        3.0339458879   -1.3874111761    0.5976527737
C        0.6964976661   -0.7436725892    0.6136784864
C        3.0486322959   -1.3956251620    1.9951511112
C        0.7008885229   -0.7435430572    2.0083938397
C        1.8773402822   -1.0861884350    2.6979535350
O        1.1281619715    0.2093793895    5.0557801513
P        1.7772983173   -0.9950103277    4.4974440328
Cl       0.7878092054   -2.7356367477    5.0365238606
Cl       3.6885952420   -1.3220773644    5.2025443918
H        1.8556724632   -1.0617028226   -1.1786651585
H        3.9409442166   -1.6295366893    0.0510123506
H       -0.2129878951   -0.4837584736    0.0794948422
H        3.9612048164   -1.6472244887    2.5248073815
H       -0.1973994149   -0.4744309088    2.5566488771
15   
Generated by ForceBalance from scan.xyz: Frame 6 of 24
C        1.8628626768   -1.0613256305   -0.0980597367
C        3.0058595699   -1.4619297172    0.6016448797
C        0.7157686679   -0.6630744817    0.5968405240
C        3.0067003157   -1.4735889259    1.9980025761
C        0.7058140759   -0.6661969594    1.9926283445
C        1.8510501920   -1.0867374826    2.6897711462
O        0.8867241238    0.0376241884    5.0495382387
P        1.7353180920   -1.0338003248    4.4878682574
Cl       1.0734543144   -2.9239400651    5.0223748953
Cl       3.6780265930   -1.0272970252    5.1865587537
H        1.8685450006   -1.0529504519   -1.1847067512
H        3.8998391866   -1.7616296562    0.0621733285
H       -0.1683518998   -0.3406556723    0.0541450731
H        3.8959631080   -1.7834142381    2.5371260611
H       -0.1740566501   -0.3370522838    2.5374900238
15   
Generated by ForceBalance from scan.xyz: Frame 7 of 24
C        1.8648273152   -1.0631347914   -0.0869127025
C        2.9767437380   -1.5384790597    0.6188345383
C        0.7463386358   -0.5805450422    0.5993900724
C        2.9722020288   -1.5379761881    2.0140746236
C        0.7326559760   -0.5730906634    1.9963282337
C        1.8448111423   -1.0623242351    2.6989695019
O        0.7211941292   -0.0989782451    5.0574283101
P        1.7311838491   -1.0200789239    4.4958497653
Cl       1.4189095268   -2.9919593389    5.0500617006
Cl       3.6539100974   -0.6778316883    5.1683363532
H        1.8739247357   -1.0647271485   -1.1735753595
H        3.8478604371   -1.9053205796    0.0833783664
H       -0.1123375724   -0.2036002634    0.0509671536
H        3.8363551131   -1.9040049344    2.5600169617
H       -0.1236723691   -0.1862351402    2.5403153474
15   
Generated by ForceBalance from scan.xyz: Frame 8 of 24
C        1.8753162437   -1.0548733753   -0.0607398886
C        2.9411022806   -1.6155082811    0.6552543781
C        0.7893096286   -0.4918674603    0.6153622376
C        2.9232509814   -1.6160984193    2.0495785849
C        0.7600809444   -0.4859821601    2.0128439325
C        1.8291711097   -1.0521716727    2.7224183614
O        0.5718881827   -0.2590416720    5.0759540296
P        1.7161984190   -1.0093875165    4.5181541208
Cl       1.7671011506   -2.9940318871    5.1044355263
Cl       3.5614233989   -0.3305047080    5.1613714896
H        1.8949966326   -1.0561889411   -1.1473050394
H        3.7851397279   -2.0497207218    0.1269261251
H       -0.0347761842   -0.0548407980    0.0585316330
H        3.7505195716   -2.0488008058    2.6048873136
H       -0.0741272412   -0.0474387072    2.5518706945
15   
Generated by ForceBalance from scan.xyz: Frame 9 of 24
C        1.8836428226   -1.0352906089   -0.0741169328
C        2.9006761212   -1.6819213334    0.6401589956
C        0.8317747969   -0.4138315432    0.6048208466
C        2.8701414812   -1.7076562005    2.0339817913
C        0.7885050837   -0.4326009328    2.0017679933
C        1.8135914244   -1.0781369223    2.7086679722
O        0.4344237623   -0.5146258866    5.0611467310
P        1.6904112745   -1.0579715214    4.5039661552
Cl       2.1119764803   -2.9943308139    5.0974384147
Cl       3.3840649383   -0.0507206523    5.1410706670
H        1.9121073646   -1.0196693356   -1.1603752139
H        3.7153582735   -2.1675365145    0.1105549233
H        0.0415871155    0.0837602205    0.0497456226
H        3.6576252321   -2.2112232932    2.5873029629
H       -0.0263335621    0.0400696105    2.5416641296
15   
Generated by ForceBalance from scan.xyz: Frame 10 of 24
C        1.7618905563   -1.0618302008    0.1507963047
C        2.6401802338   -1.2665681047    1.2215438628
C        0.6694791903   -0.2001569880    0.2900968740
C        2.4334530318   -0.6067659795    2.4336024396
C        0.4501799440    0.4635992430    1.4994019841
C        1.3428926317    0.2647760721    2.5644533170
O       -0.4169092260    1.6241681198    4.2438138571
P        0.9778573622    1.1644238413    4.0813894646
Cl       1.6704344777   -0.0293209938    5.6191401916
Cl       2.3529482235    2.7158747597    4.1113671935
H        1.9265385082   -1.5799918735   -0.7901326787
H        3.4834511947   -1.9429825935    1.1145726532
H       -0.0168072224   -0.0484446674   -0.5382253764
H        3.1146352255   -0.7684936522    3.2633395611
H       -0.4048823399    1.1210834671    1.6240572149
15   
Generated by ForceBalance from scan.xyz: Frame 11 of 24
C        7.8323337590    1.2565275479    2.9368389820
C        6.9735898954    0.2215143071    2.5530463670
C        9.0008087571    1.5072572463    2.2092242795
C        7.2730419309   -0.5621636611    1.4365174417
C        9.3134003315    0.7274883033    1.0947115450
C        8.4364823444   -0.2979518134    0.7016830133
O       10.4012246908   -1.4658434732   -0.8977428378
P        8.9478919197   -1.2530542312   -0.7392529399
Cl       7.8242011128   -2.9859658379   -0.7054195321
Cl       8.1076848566   -0.2464574725   -2.3465490025
H        7.5948698348    1.8626861328    3.8069407620
H        6.0717743156    0.0193609195    3.1239424011
H        9.6746031953    2.3031162446    2.5137299818
H        6.6046051875   -1.3647849487    1.1430030844
H       10.2304007883    0.9039891796    0.5402326400
15   
Generated by ForceBalance from scan.xyz: Frame 12 of 24
C        1.7633927046   -1.0625695827    0.1235801865
C        2.5631717721   -1.4100246027    1.2156813331
C        0.7958609139   -0.0591756572    0.2524171697
C        2.4072318034   -0.7540741134    2.4399922202
C        0.6276409432    0.5987440266    1.4705400038
C        1.4481184568    0.2592829661    2.5609077094
O       -0.3215413069    1.1990236720    4.5122166702
P        1.0958999654    1.1318710366    4.1009665001
Cl       2.3582240335    0.3272046703    5.5229555936
Cl       1.9269268130    3.0106292168    3.8097081090
H        1.8893190397   -1.5755993446   -0.8260425559
H        3.3088998752   -2.1940744288    1.1196505881
H        0.1664176520    0.2059283194   -0.5923165211
H        3.0327022319   -1.0270061737    3.2830453242
H       -0.1354260782    1.3648521119    1.5749819273
15   
Generated by ForceBalance from scan.xyz: Frame 13 of 24
C        1.7579377100   -1.0618418268    0.0973309594
C        2.5056242601   -1.4835598006    1.1997111946
C        0.8527454464   -0.0018337359    0.2267951232
C        2.3573856108   -0.8477008815    2.4356725483
C        0.6934209834    0.6362829011    1.4564472688
C        1.4583774261    0.2192001526    2.5598537688
O       -0.2724619023    0.8564983697    4.6711644756
P        1.0953925376    1.0214858680    4.1374606309
Cl       2.5835905058    0.4159280684    5.4358847042
Cl       1.5862080787    3.0097112270    3.8151904621
H        1.8779757973   -1.5582810853   -0.8617825883
H        3.2055631590   -2.3086695868    1.1030806380
H        0.2670944759    0.3253480740   -0.6276081872
H        2.9437919709   -1.1784893765    3.2859895274
H       -0.0157397666    1.4534665736    1.5538046977
15   
Generated by ForceBalance from scan.xyz: Frame 14 of 24
C        1.7624622051   -1.0687045010    0.1052902260
C        2.4502794740   -1.5253566184    1.2330767040
C        0.9270361292    0.0498044035    0.1990332859
C        2.3089310002   -0.8675927719    2.4575711150
C        0.7781239857    0.7136754554    1.4171585648
C        1.4802842373    0.2598338658    2.5459453250
O       -0.1355520171    0.6771962420    4.8085289768
P        1.1288628453    1.0438629377    4.1373825403
Cl       2.8065661194    0.7031540989    5.2972931950
Cl       1.2739204264    3.0734649850    3.7491497546
H        1.8772847133   -1.5820327028   -0.8455322453
H        3.0989041109   -2.3940186242    1.1640396800
H        0.3894836331    0.4064087403   -0.6749875048
H        2.8500689403   -1.2261648692    3.3269009421
H        0.1293707535    1.5820906265    1.4815112718
15   
Generated by ForceBalance from scan.xyz: Frame 15 of 24
C        1.7836199186   -1.0779266379    0.1048101249
C        2.3854149364   -1.5666146864    1.2691693483
C        1.0031070163    0.0808214837    0.1552977118
C        2.2102975457   -0.9006320226    2.4831599768
C        0.8215156001    0.7560040696    1.3644560335
C        1.4334465800    0.2680349345    2.5283093479
O       -0.0081278200    0.4378826325    4.9373514394
P        1.0864588074    1.0230594605    4.1353378480
Cl       2.9077738453    1.0030767897    5.1208346581
Cl       0.8220498731    3.0360833237    3.7402507120
H        1.9246234854   -1.5977172498   -0.8389659684
H        2.9927570256   -2.4666080505    1.2348784036
H        0.5340105768    0.4637546041   -0.7465460944
H        2.6846343774   -1.2847391010    3.3809690623
H        0.2181735281    1.6575144148    1.3923097729
15   
Generated by ForceBalance from scan.xyz: Frame 16 of 24
C        1.7795161775   -1.0679374854    0.1092286205
C        2.2961792950   -1.6149835650    1.2896602407
C        1.0823543360    0.1423871053    0.1446620267
C        2.1153582229   -0.9555592934    2.5051122232
C        0.8987263556    0.8140822137    1.3566425340
C        1.4164886056    0.2636933230    2.5360471274
O        0.2986758757    0.2530146370    5.1082377742
P        1.1501519588    1.0049075569    4.1630319188
Cl       3.0631351113    1.3090994678    4.8994839883
Cl       0.4971094771    2.9315965366    3.8066043271
H        1.9221950181   -1.5847292247   -0.8359329057
H        2.8387481350   -2.5557551606    1.2651715643
H        0.6806573136    0.5695606612   -0.7697867915
H        2.5160417285   -1.3860835080    3.4184086050
H        0.3622704043    1.7565351316    1.3747423348
15   
Generated by ForceBalance from scan.xyz: Frame 17 of 24
C        1.8109308336   -1.0877162061    0.0892493682
C        2.2043523374   -1.6857724084    1.2922261035
C        1.1945725155    0.1666248460    0.0964645167
C        1.9809067988   -1.0323763994    2.5039219136
C        0.9708226049    0.8330935642    1.3043878293
C        1.3576980251    0.2280294444    2.5067277265
O        0.5736312865    0.1391481188    5.1880099528
P        1.1526169499    0.9918265767    4.1290155322
Cl       3.0579373548    1.6490369887    4.6159616200
Cl       0.1267090672    2.7544731100    3.8156751035
H        1.9855775531   -1.6002202358   -0.8529040619
H        2.6825022174   -2.6611847506    1.2881415768
H        0.8891647834    0.6314784237   -0.8366611009
H        2.2761780608   -1.5005030427    3.4386882551
H        0.5003255662    1.8104198232    1.3035776699
15   
Generated by ForceBalance from scan.xyz: Frame 18 of 24
C        1.8162091625   -1.0880490690    0.0954454488
C        2.1285485841   -1.7228361137    1.3024006056
C        1.2874014698    0.2070128147    0.0986955164
C        1.9129232020   -1.0672620651    2.5158162515
C        1.0718547817    0.8748707125    1.3058859188
C        1.3776828126    0.2317981424    2.5129011742
O        0.8762861022    0.1135086094    5.2519329786
P        1.2086991178    1.0134766471    4.1279929453
Cl       3.0089603037    1.9995489636    4.4172244403
Cl      -0.1190849337    2.5733749290    3.8702487836
H        1.9828922338   -1.6027379806   -0.8470199577
H        2.5364772372   -2.7296719281    1.3010996398
H        1.0430135080    0.6996020830   -0.8381480301
H        2.1405577111   -1.5604013388    3.4562787760
H        0.6663669839    1.8813982337    1.3037942567
15   
Generated by ForceBalance from scan.xyz: Frame 19 of 24
C        1.8507019248   -1.0251261930   -0.1094377830
C        2.9526174156   -0.5214401465    0.5883915518
C        0.7789715209   -1.6008796962    0.5837839071
C        2.9897432039   -0.5889238403    1.9833547451
C        0.8029082180   -1.6717444871    1.9768803016
C        1.9125685741   -1.1687290772    2.6712850885
O        3.3627786717   -0.9595514470    5.0396076978
P        2.0126047868   -1.1462537394    4.4687673490
Cl       0.6800885330    0.3308925048    5.0480403132
Cl       1.0564728446   -2.8657428720    5.0997984859
H        1.8260694022   -0.9715326705   -1.1945553543
H        3.7850024435   -0.0776449029    0.0495857899
H       -0.0750093475   -1.9942514626    0.0396825969
H        3.8441069000   -0.2094275552    2.5356508321
H       -0.0293146648   -2.1173837273    2.5134270385
15   
Generated by ForceBalance from scan.xyz: Frame 20 of 24
C        1.8611704323   -1.0477612999   -0.1109248974
C        2.9909024825   -0.6007846072    0.5799988892
C        0.7504551407   -1.5357507660    0.5898623093
C        3.0184491564   -0.6385272995    1.9770495165
C        0.7658417029   -1.5778341596    1.9835862600
C        1.9031339250   -1.1293977109    2.6714224629
O        3.3149135590   -0.7386852917    5.0384479112
P        2.0082244131   -1.1270998921    4.4681479791
Cl       0.4433837344    0.0749181809    5.0942412331
Cl       1.3600028714   -3.0032633746    5.0512732884
H        1.8437662294   -1.0179505899   -1.1971249955
H        3.8517566827   -0.2236149811    0.0351540748
H       -0.1257210356   -1.8834299453    0.0499529435
H        3.8901764887   -0.2979481991    2.5273541358
H       -0.0951886392   -1.9566202468    2.5268660917
15   
Generated by ForceBalance from scan.xyz: Frame 21 of 24
C        1.8731472953   -1.0671451011   -0.1286403040
C        3.0238196362   -0.6767172892    0.5620502478
C        0.7282486566   -1.4664975043    0.5731558792
C        3.0385411604   -0.6829030614    1.9597586474
C        0.7310596289   -1.4773373141    1.9675537580
C        1.8879483601   -1.0821258109    2.6553539980
O        3.2238868969   -0.5102151752    5.0309842559
P        1.9956676673   -1.0928523716    4.4518271762
Cl       0.2467038256   -0.2015584339    5.1048150521
Cl       1.6816911943   -3.0671293075    4.9917299060
H        1.8652842966   -1.0602439927   -1.2153313196
H        3.9103711372   -0.3661604532    0.0163863309
H       -0.1650198575   -1.7684535524    0.0337515441
H        3.9238167627   -0.3784964528    2.5096814337
H       -0.1567363165   -1.7865654713    2.5116982860
15   
Generated by ForceBalance from scan.xyz: Frame 22 of 24
C        1.8811907434   -1.0887240554   -0.1321361213
C        3.0495665949   -0.7624046612    0.5632184272
C        0.7066385019   -1.3955208983    0.5653930695
C        3.0515349640   -0.7415984799    1.9599959357
C        0.6967618630   -1.3807781700    1.9605048981
C        1.8698914862   -1.0480319951    2.6529033052
O        3.1069793995   -0.3101155341    5.0394303865
P        1.9878272803   -1.0733108228    4.4493583273
Cl       0.1186714137   -0.5214484599    5.1365562051
Cl       2.0303042123   -3.0875532960    4.9372588969
H        1.8836406212   -1.1027389643   -1.2187527029
H        3.9596240536   -0.5216411121    0.0210540954
H       -0.2008318633   -1.6464388090    0.0235210180
H        3.9504464205   -0.4801844228    2.5101631542
H       -0.2141444855   -1.6208739242    2.5003267803
15   
Generated by ForceBalance from scan.xyz: Frame 23 of 24
C        1.8762731333   -1.1000230903   -0.1281456293
C        3.0604522262   -0.8501669627    0.5739235986
C        0.6772328610   -1.3016004794    0.5632500879
C        3.0512039321   -0.8004338287    1.9687141903
C        0.6554779130   -1.2600923223    1.9589566321
C        1.8427396101   -1.0016128321    2.6569563512
O        2.9267468569   -0.0469101705    5.0453199783
P        1.9587697056   -0.9943809828    4.4555507248
Cl       0.0236884814   -0.7931437488    5.1508225577
Cl       2.3708670775   -2.9680289496    4.9465860384
H        1.8875218170   -1.1360907310   -1.2141772322
H        3.9913065368   -0.6906374595    0.0371328581
H       -0.2425245814   -1.4932041731    0.0179223624
H        3.9648113006   -0.5931912612    2.5182946149
H       -0.2755173968   -1.4218215402    2.4922400932
15   
Generated by ForceBalance from scan.xyz: Frame 24 of 24
C        1.8766293647   -1.0997760917   -0.1402241631
C        3.0714615314   -0.9463169631    0.5729347996
C        0.6620682675   -1.2133347930    0.5415568578
C        3.0540018867   -0.9045663795    1.9667499964
C        0.6331084264   -1.1786136537    1.9385607164
C        1.8294073978   -1.0181687855    2.6485701288
O        2.6868592122    0.1463068517    5.0464963123
P        1.9309178606   -0.9743800131    4.4503977156
Cl      -0.0055259996   -1.1611510138    5.1429471710
Cl       2.7350889384   -2.8227618831    4.9429135077
H        1.8938752854   -1.1311483025   -1.2262891306
H        4.0165262977   -0.8568807318    0.0448062527
H       -0.2659335462   -1.3324849266   -0.0104153464
H        3.9805778118   -0.7758457940    2.5191316777
H       -0.3116765216   -1.2765103139    2.4621408494
