28   

C       -3.3212225445    4.3776587212    2.2440568229
C       -3.7908021068    3.1657879719    2.7564634201
C       -2.3297570018    4.3765830334    1.2594835310
C       -3.2716612213    1.9556713956    2.2822763256
C       -1.8015023405    3.1654145859    0.7970548108
C       -2.2641114281    1.9396938590    1.3025335613
C       -0.5315446173    0.3972595081    0.1308222595
C        0.5573621220   -0.2158347372    0.8483089422
C       -0.5199770938    0.0341626088   -1.3278069225
C       -1.7052720252    0.6891145939    0.8350892389
C        1.9106407894   -0.2954138764   -1.1914109525
C        0.6750113361   -0.9307030535   -3.2781642921
N        1.6972595793   -0.6040515632    0.2010149101
N        0.6617586606   -0.3969458244   -1.9208884559
O        0.4881893986   -0.4598512740    2.0401576451
O       -1.5567447523    0.0838009820   -1.9731171108
H       -3.7248732916    5.3153279813    2.6092828613
H       -4.5554076206    3.1622711759    3.5250157532
H       -1.9689375194    5.3146456494    0.8533757839
H       -3.6447764089    1.0258023676    2.6963762643
H       -1.0342805082    3.1792119414    0.0314840321
H       -2.0813496370   -0.1577450392    1.3996235965
H        2.3197241992    0.7160695887   -1.2887622720
H        2.6372160889   -1.0023476039   -1.6058358275
H        1.5990520323   -0.6447417725   -3.7904545252
H       -0.1597470918   -0.5407035063   -3.8694086620
H        0.6062954864   -2.0228125249   -3.2509350692
H        2.3621144282   -1.1252185202    0.7595600352
28   

C       -3.4678356493    4.3768649312    2.0372541947
C       -3.8193496208    3.2242364042    2.7439503881
C       -2.5591142259    4.2914046757    0.9793278209
C       -3.2640602265    1.9888466729    2.3916035298
C       -1.9930324132    3.0573223506    0.6384458075
C       -2.3346324603    1.8905729616    1.3412385514
C       -0.5676688164    0.3065544586    0.3024639628
C        0.4445845396   -0.4936963698    0.9450896924
C       -0.5892822519    0.1153714712   -1.1833444538
C       -1.7301788891    0.6159589429    0.9992064579
C        1.7750208219   -0.5716477901   -1.1152668839
C        0.4925265041   -0.6966273501   -3.2626271444
N        1.5235987649   -0.9629394626    0.2497720833
N        0.5314902665   -0.3849811275   -1.8377246324
O        0.3651605738   -0.8156026882    2.1179033792
O       -1.5897085895    0.4136843457   -1.8197671554
H       -3.8999868083    5.3337360257    2.3077075415
H       -4.5203357298    3.2868587068    3.5685573600
H       -2.2928074323    5.1811110323    0.4202734533
H       -3.5459641058    1.1072449885    2.9561454018
H       -1.2951769174    3.0040375301   -0.1896064709
H       -2.0060215468   -0.1327525157    1.7351579903
H        2.3554232613    0.3572013492   -1.1321175075
H        2.3662838560   -1.3543058651   -1.6024384205
H        0.9291541049    0.1245091522   -3.8396317582
H       -0.5337895866   -0.8591592011   -3.6077577034
H        1.0513581896   -1.6155327370   -3.4662032380
H        2.1345271829   -1.5860530547    0.7637556867
28   

C       -3.5031309582    4.3690353531    1.9198411589
C       -3.7837721856    3.2805586108    2.7485555573
C       -2.6372058777    4.2087243425    0.8354574722
C       -3.2011227303    2.0345950046    2.4909437279
C       -2.0421403940    2.9657794792    0.5891824073
C       -2.3132450257    1.8608503860    1.4140811042
C       -0.5585533986    0.2239358846    0.4581799466
C        0.4094829763   -0.6788239602    1.0311056413
C       -0.5737900502    0.1834651367   -1.0381814923
C       -1.6809349210    0.5709532910    1.1814983987
C        1.7474860568   -0.6439403597   -1.0253802862
C        0.4882335756   -0.4717438907   -3.1820780350
N        1.4608167179   -1.1481251075    0.2948942301
N        0.5254115242   -0.3120149955   -1.7320599203
O        0.3245562384   -1.0773160713    2.1799024380
O       -1.5481764052    0.5947753452   -1.6519145052
H       -3.9569546552    5.3338858689    2.1162397031
H       -4.4510453735    3.4013699182    3.5943752205
H       -2.4261767373    5.0470717060    0.1815258804
H       -3.4289574164    1.2047095740    3.1503313067
H       -1.3781263575    2.8609079524   -0.2609372330
H       -1.9106913997   -0.1080768299    1.9966478367
H        2.3838415218    0.2445846043   -0.9510715961
H        2.2942239233   -1.4115020518   -1.5834409809
H        0.9726858989    0.3814499006   -3.6670839630
H       -0.5405178264   -0.5449908017   -3.5496885497
H        1.0027566720   -1.3918106995   -3.4767427637
H        2.0470384024   -1.8302749271    0.7603812470
28   

C       -3.5261323737    4.3227356547    1.7807082190
C       -3.7444633632    3.2834648176    2.6864590418
C       -2.6841616898    4.1195489645    0.6853873016
C       -3.1253673662    2.0437515784    2.4931862099
C       -2.0528440293    2.8834398142    0.5020569892
C       -2.2646423990    1.8228452537    1.4018539458
C       -0.5523735902    0.1162681034    0.4755546056
C        0.3819170238   -0.8572348416    0.9874794766
C       -0.5681414297    0.1771205109   -1.0189372246
C       -1.6017219237    0.5333862538    1.2552839502
C        1.7293325660   -0.7149062272   -1.0552600205
C        0.4865557223   -0.3597405897   -3.1996171064
N        1.4123908592   -1.3165539158    0.2164253144
N        0.5237969002   -0.2928394270   -1.7421656506
O        0.2986923777   -1.3106514733    2.1159432956
O       -1.5429686998    0.6177285386   -1.6109373210
H       -4.0080641342    5.2828578340    1.9268934986
H       -4.3920150930    3.4374267644    3.5421904162
H       -2.5176141314    4.9203623508   -0.0259081851
H       -3.3073588779    1.2539170508    3.2132637328
H       -1.4016540992    2.7611039053   -0.3540800142
H       -1.7828122258   -0.0868894957    2.1274903998
H        2.3885076322    0.1466647033   -0.9029700874
H        2.2615369809   -1.4495740842   -1.6688465683
H        0.9658357864    0.5255339885   -3.6290557875
H       -0.5420424719   -0.4161248805   -3.5705960695
H        1.0062956933   -1.2556699803   -3.5535195875
H        1.9862242592   -2.0351129780    0.6407173334
28   

C       -3.6686935833    4.4606401488    1.7853456153
C       -3.7723477654    3.4535318911    2.7449722490
C       -2.8789293996    4.2556377362    0.6528317198
C       -3.0938762887    2.2433265509    2.5664368432
C       -2.1880963946    3.0496173338    0.4828190570
C       -2.2890529636    2.0153855379    1.4334058598
C       -0.6164262485    0.2767703450    0.4624806051
C        0.3054874055   -0.7439597250    0.9014048963
C       -0.6535541906    0.4281227142   -1.0242559032
C       -1.5706485656    0.7515161512    1.3198164504
C        1.6364932706   -0.4763073231   -1.1349844218
C        0.3829836728    0.0161932916   -3.2443270782
N        1.3124952949   -1.1747541339    0.0844386742
N        0.4325818019    0.0046554695   -1.7853166758
O        0.2452964588   -1.2491838734    2.0091912493
O       -1.6497489287    0.8626293579   -1.5835549229
H       -4.1968820685    5.3978983302    1.9196301912
H       -4.3773323811    3.6092556959    3.6310292328
H       -2.7966629259    5.0333435557   -0.0977728974
H       -3.1897812415    1.4796158938    3.3300465186
H       -1.5717628747    2.9440288054   -0.3992785637
H       -1.6702817166    0.1718626896    2.2320874801
H        2.3001026736    0.3669348498   -0.9144581959
H        2.1654374739   -1.1629926419   -1.8044291199
H        0.9072990276    0.8955629417   -3.6311179753
H       -0.6478129745    0.0348715916   -3.6126345915
H        0.8521027935   -0.8867995900   -3.6475637250
H        1.8908928955   -1.9158930163    0.4609757051
28   

C       -3.7081406514    4.4360169458    1.7477056644
C       -3.7116484515    3.4774604972    2.7601405998
C       -2.9759189816    4.2042404689    0.5828062496
C       -2.9937110462    2.2878010188    2.6005523887
C       -2.2453487558    3.0192695674    0.4305119995
C       -2.2496747969    2.0277833295    1.4321895253
C       -0.6369354768    0.2197057124    0.4523287466
C        0.2410911928   -0.8507024986    0.8651834146
C       -0.6443921047    0.4254178471   -1.0275293286
C       -1.4954000090    0.7808751293    1.3524531878
C        1.6226081490   -0.5363102129   -1.1274066968
C        0.4353056949    0.0847595067   -3.2406064951
N        1.2424168500   -1.2867777050    0.0440397294
N        0.4510392968    0.0133666938   -1.7822301749
O        0.1599420051   -1.3836017296    1.9586349486
O       -1.6349984061    0.8604804651   -1.5952678368
H       -4.2674066936    5.3571728155    1.8667772615
H       -4.2699837032    3.6545543350    3.6724465221
H       -2.9672191415    4.9463716401   -0.2072661543
H       -3.0146982419    1.5630966124    3.4067767093
H       -1.6699413445    2.9100363140   -0.4767377603
H       -1.5371485868    0.2495131949    2.2979193340
H        2.3037853491    0.2739250887   -0.8452603685
H        2.1500849881   -1.2033276384   -1.8175858854
H        0.9889904722    0.9660416735   -3.5791117790
H       -0.5853738299    0.1432162704   -3.6320318764
H        0.8928238527   -0.8120589035   -3.6700580714
H        1.7965774892   -2.0536573426    0.4051612310
28   

C       -3.7688894915    4.4410153158    1.7723311482
C       -3.6505732887    3.5343328692    2.8238482738
C       -3.1172831141    4.1831996331    0.5664787839
C       -2.8946898211    2.3689737301    2.6616702393
C       -2.3476369678    3.0235640667    0.4105091351
C       -2.2323895424    2.0782602958    1.4507653261
C       -0.6758792316    0.2143017146    0.4516183265
C        0.1519836636   -0.9018231814    0.8483080867
C       -0.6348871279    0.4707834717   -1.0192342357
C       -1.4418727712    0.8525603615    1.3820495918
C        1.6040743496   -0.5582596018   -1.0857451950
C        0.5110986220    0.1856638445   -3.2087374737
N        1.1552337018   -1.3475200863    0.0348899343
N        0.4763874077    0.0628608969   -1.7536942945
O        0.0349549566   -1.4588445569    1.9264112551
O       -1.6121567617    0.9055753220   -1.6084635804
H       -4.3585831495    5.3428284948    1.8927606136
H       -4.1442290978    3.7324591787    3.7685591493
H       -3.2004563230    4.8867659282   -0.2540056088
H       -2.8238652892    1.6859176138    3.5007836129
H       -1.8364335009    2.9106045769   -0.5319626834
H       -1.4251953283    0.3604683867    2.3492094793
H        2.3026672026    0.2126585442   -0.7427139980
H        2.1322688432   -1.2121047326   -1.7879261105
H        1.1181149993    1.0493624191   -3.4974235573
H       -0.4911300560    0.3092989277   -3.6312235304
H        0.9382829653   -0.7173371562   -3.6561096351
H        1.6765928382   -2.1414672930    0.3862520289
28   

C       -3.8328087005    4.4480507803    1.8168567352
C       -3.5650807045    3.6196343764    2.9039674518
C       -3.2878832839    4.1413777469    0.5708980532
C       -2.7678965224    2.4828151332    2.7380871326
C       -2.4769832854    3.0108989226    0.4091980396
C       -2.2101927369    2.1404493356    1.4873272445
C       -0.6975305456    0.2311095879    0.4826879803
C        0.0858792110   -0.9159922714    0.8798711989
C       -0.5959032775    0.5240289068   -0.9781492033
C       -1.3785390157    0.9417304749    1.4277949484
C        1.6183882155   -0.5623147627   -0.9885640565
C        0.6448639340    0.2954143836   -3.1226523191
N        1.1017521296   -1.3718762931    0.0880514165
N        0.5380318522    0.1164965218   -1.6773873147
O       -0.0734525906   -1.4844295240    1.9465179905
O       -1.5594127290    0.9328598584   -1.6057767663
H       -4.4556794402    5.3269444946    1.9397963125
H       -3.9754101382    3.8558757059    3.8793071689
H       -3.4872810313    4.7842937387   -0.2788834480
H       -2.5834773733    1.8620542723    3.6077891871
H       -2.0624614300    2.8698328570   -0.5737336992
H       -1.2967833427    0.4949666600    2.4134751038
H        2.3299139792    0.1721193241   -0.5960928587
H        2.1474259306   -1.2122614102   -1.6939988895
H        1.6268951188    0.7059244094   -3.3775897324
H       -0.1069933711    0.9938314439   -3.5038268493
H        0.5130978753   -0.6643396874   -3.6320055782
H        1.5879066317   -2.1889617135    0.4368593303
28   

C       -3.8683248694    4.3962669482    1.8331927771
C       -3.2049891606    3.8326919240    2.9200534366
C       -3.7183459867    3.8269861915    0.5701196851
C       -2.3801332998    2.7184072522    2.7360058055
C       -2.8993638554    2.7055212745    0.3892534344
C       -2.1802111503    2.1379666805    1.4640320951
C       -0.7076732070    0.2076594637    0.4350667388
C       -0.0584873583   -1.0257285321    0.8292366044
C       -0.5410974475    0.5520283975   -1.0081595666
C       -1.3050384471    0.9713541738    1.3974625175
C        1.3114724180   -1.0674419700   -1.1912676527
C        0.5009945739    0.1334194036   -3.2135698407
N        0.7774947649   -1.6966759540   -0.0144851673
N        0.3340570292   -0.1897624051   -1.7997165019
O       -0.2148996298   -1.5238061410    1.9311005214
O       -1.0174742596    1.5551853651   -1.5075245335
H       -4.5067157988    5.2617664412    1.9702890562
H       -3.3284167678    4.2579197350    3.9096723907
H       -4.2505470732    4.2433884776   -0.2775762855
H       -1.8810568796    2.3102303520    3.6077295314
H       -2.9098502650    2.2811029122   -0.6000290949
H       -1.0799044030    0.6227048147    2.4001839702
H        2.2057536162   -0.4919505923   -0.9264671324
H        1.6013229156   -1.8436113664   -1.9071914096
H        1.2148758297    0.9557437544   -3.3287978455
H       -0.4533627786    0.4294863995   -3.6611236280
H        0.8681295794   -0.7368107881   -3.7663645303
H        1.1716519875   -2.5479222917    0.3670728203
28   

C       -3.9609393985    4.2912162205    1.7281807844
C       -3.2507612968    3.8344863524    2.8369993220
C       -3.7583839679    3.6886470107    0.4866288264
C       -2.3319900967    2.7892022855    2.6979984110
C       -2.8448832649    2.6359167081    0.3510252758
C       -2.0922747126    2.1753871305    1.4509623492
C       -0.5941193530    0.2612937064    0.4442298619
C        0.0026074210   -0.9920156643    0.8484157146
C       -0.3536808879    0.6293516613   -0.9810754992
C       -1.1377057581    1.0732784636    1.4022842037
C        1.2804066246   -1.2110691752   -1.2351713929
C        0.6425176266    0.1810695785   -3.1945291896
N        0.7595157707   -1.7416141182   -0.0037047613
N        0.4288584742   -0.1831762990   -1.7974888173
O       -0.1427560282   -1.4491278983    1.9693247465
O       -0.6994563763    1.7100268717   -1.4303200306
H       -4.6725726351    5.1025406884    1.8318122574
H       -3.4115962035    4.2884437775    3.8083128964
H       -4.3181126423    4.0278244556   -0.3774985828
H       -1.7983721153    2.4573152391    3.5815274219
H       -2.7798260684    2.1736691271   -0.6220681325
H       -0.8755819358    0.7688646093    2.4105410522
H        2.2780561563   -0.7947699042   -1.0557991217
H        1.3752891926   -2.0308509875   -1.9548995478
H        1.4053264676    0.9634431619   -3.2661693625
H       -0.2854191942    0.5490048736   -3.6443911754
H        0.9700516077   -0.6875112543   -3.7743478128
H        1.1130188381   -2.6008610272    0.3994169370
28   

C       -4.0350162107    4.2364312722    1.7340107797
C       -3.2644769553    3.8669916171    2.8361750552
C       -3.8237758302    3.6104728972    0.5047173790
C       -2.2802136530    2.8818791695    2.7040535565
C       -2.8453411572    2.6170195114    0.3766736163
C       -2.0423574250    2.2416202414    1.4715588177
C       -0.5770280419    0.3297687022    0.4469267067
C       -0.0283230659   -0.9419354273    0.8492740819
C       -0.2813660145    0.7185872075   -0.9620420450
C       -1.0286584283    1.1963826025    1.4095529631
C        1.1727600989   -1.2685016295   -1.2756377112
C        0.7239120562    0.2778098716   -3.1710541558
N        0.6679590297   -1.7387100116   -0.0117205227
N        0.4544950687   -0.1210456645   -1.7933088306
O       -0.1604020412   -1.3725037538    1.9821034671
O       -0.5710730829    1.8289654766   -1.3813120743
H       -4.7974456900    5.0008151252    1.8330762618
H       -3.4299564224    4.3415154794    3.7967937426
H       -4.4235715792    3.8876494043   -0.3545928598
H       -1.7000670802    2.6130915970    3.5796096972
H       -2.7479319693    2.1351697683   -0.5859531520
H       -0.7052250995    0.9321185612    2.4114497748
H        2.2296697442   -1.0037151236   -1.1596961719
H        1.1024995581   -2.0858686074   -2.0009094465
H        1.5521482526    0.9934245874   -3.1998020030
H       -0.1606633544    0.7408362450   -3.6205395067
H        0.9866525896   -0.5925801075   -3.7804805868
H        0.9990709352   -2.6010150839    0.4038816922
28   

C       -4.0936531176    4.1695518100    1.7688999106
C       -3.2626841824    3.8817956969    2.8524031391
C       -3.8764916384    3.5348606813    0.5444718144
C       -2.2144090186    2.9665751793    2.7078498399
C       -2.8354783522    2.6090908798    0.4052433930
C       -1.9805131175    2.3127023388    1.4830551351
C       -0.5511876252    0.4046177143    0.4365775974
C       -0.0494510753   -0.8768808347    0.8598787869
C       -0.1977732626    0.7804821995   -0.9624482624
C       -0.9062021502    1.3337567770    1.3879375061
C        1.0989636920   -1.3183670579   -1.2809343310
C        0.8521371231    0.3130077409   -3.1436210954
N        0.6049934199   -1.7214688079    0.0114424586
N        0.5171647695   -0.0881380915   -1.7810838172
O       -0.1757613167   -1.2683187377    2.0073031030
O       -0.4590730111    1.8974271876   -1.3855358306
H       -4.9053076973    4.8799672499    1.8780776430
H       -3.4315420129    4.3649076177    3.8081007642
H       -4.5171718990    3.7551806622   -0.3016709532
H       -1.5873951363    2.7569440496    3.5670432538
H       -2.7106562609    2.1229007722   -0.5534654970
H       -0.5098251509    1.1198438063    2.3755884905
H        2.1854463918   -1.1922374133   -1.2165685445
H        0.8898643937   -2.1212650442   -1.9955241303
H        1.7158801674    0.9857666365   -3.1356362035
H        0.0072683745    0.8247539912   -3.6161782817
H        1.0916425075   -0.5621218117   -3.7559185305
H        0.9201351286   -2.5766150403    0.4535436606
28   

C       -4.1589138427    4.1029264409    1.8555198505
C       -3.2551376082    3.8855255906    2.8974457167
C       -3.9647152340    3.4672982275    0.6270858226
C       -2.1583641397    3.0371531995    2.7087190879
C       -2.8758968907    2.6065374226    0.4451623792
C       -1.9552712106    2.3779487411    1.4824790095
C       -0.5755508761    0.4715813806    0.3902398747
C       -0.1347929030   -0.8180914288    0.8489458677
C       -0.1540982633    0.8131910850   -0.9990714067
C       -0.8344180784    1.4648461545    1.3182076623
C        1.0425151349   -1.3533868407   -1.2568471277
C        0.9807610610    0.2928832120   -3.1244728358
N        0.5011957228   -1.7072168426    0.0320049491
N        0.5693306974   -0.0848973639   -1.7763774043
O       -0.2816051044   -1.1681194077    2.0070181209
O       -0.4028568760    1.9220533395   -1.4514911759
H       -5.0077148334    4.7619109463    1.9993023924
H       -3.4054621206    4.3709915500    3.8550034925
H       -4.6578154072    3.6390002920   -0.1884519207
H       -1.4738679887    2.8785657129    3.5342557597
H       -2.7478440373    2.1233847345   -0.5161995260
H       -0.3510405914    1.3019889669    2.2763577320
H        2.1344840233   -1.3129671557   -1.1767090748
H        0.7812786635   -2.1429375949   -1.9691606892
H        1.8703006035    0.9296318534   -3.0811717632
H        0.1797921143    0.8350812006   -3.6378192634
H        1.2114383785   -0.5954427884   -3.7209717730
H        0.7869476834   -2.5552322420    0.5067100089
28   

C       -4.1906605007    4.0048399579    1.9649217394
C       -3.1979208569    3.8690924899    2.9383934974
C       -4.0404712035    3.3714348067    0.7286577051
C       -2.0566840521    3.1030421300    2.6744266038
C       -2.9063256304    2.5919993768    0.4728279261
C       -1.9011346043    2.4442260330    1.4419606516
C       -0.5181760663    0.5828847507    0.2702367871
C       -0.1451702257   -0.7114970528    0.7722591365
C        0.0133261744    0.8878462331   -1.0885083576
C       -0.7377236501    1.6154604011    1.1802476729
C        0.9676115451   -1.3987031712   -1.3317522264
C        1.2606381294    0.2993379376   -3.1310249141
N        0.4624965270   -1.6547647210   -0.0050706941
N        0.7134425144   -0.0596181009   -1.8267444701
O       -0.3096707646   -1.0115481637    1.9418271428
O       -0.1432954326    2.0101982621   -1.5491960962
H       -5.0737567673    4.6002881256    2.1674283128
H       -3.3135748200    4.3538310478    3.9011056308
H       -4.8018126309    3.4835780632   -0.0347409790
H       -1.3016685224    3.0049889979    3.4461046291
H       -2.7984930040    2.1117098817   -0.4934874867
H       -0.1573066474    1.5115643525    2.0914228868
H        2.0509207460   -1.5623648822   -1.3217657256
H        0.5194353448   -2.1206717914   -2.0221850194
H        2.1995317015    0.8484141678   -3.0067354147
H        0.5552505118    0.9219279152   -3.6913715472
H        1.4534048374   -0.5973335440   -3.7285745615
H        0.7325324481   -2.4844871469    0.5095186107
28   

C       -4.2207360569    3.2361096824    2.4829114148
C       -3.0656255338    3.3586937821    3.2590554281
C       -4.1703382599    2.5466703111    1.2686146885
C       -1.8622295252    2.7954031317    2.8194011934
C       -2.9689974621    1.9713402454    0.8378145199
C       -1.8000304753    2.0868046469    1.6072385305
C       -0.2945359970    0.4932011980    0.2095163405
C        0.0591246501   -0.8266241767    0.6666477321
C        0.3055234472    0.8056354534   -1.1339461989
C       -0.5629857322    1.4765270594    1.1682981049
C        0.3263214455   -1.5972672941   -1.6423059642
C        1.4602643979    0.0189681020   -3.1869346245
N        0.4179678330   -1.8050718893   -0.2181851275
N        0.6958871475   -0.2342905640   -1.9708281223
O        0.1036119518   -1.1085954852    1.8512617159
O        0.4835955890    1.9690989325   -1.4631712875
H       -5.1526767192    3.6744250528    2.8219003165
H       -3.1018224969    3.8872139639    4.2049190007
H       -5.0625388531    2.4568273767    0.6595323633
H       -0.9779801920    2.8961103666    3.4385188632
H       -2.9436334687    1.4409712502   -0.1071654310
H        0.2143672554    1.5547756167    1.9212209930
H        1.0024075042   -2.2943103814   -2.1486819275
H       -0.6951877751   -1.8000881142   -1.9818884176
H        2.5281971177   -0.1227440173   -2.9928912358
H        1.3030938068    1.0380942721   -3.5544553130
H        1.1485195254   -0.6662507247   -3.9814901189
H        0.7555423156   -2.6663351133    0.1939855770
