24   

C       -2.3375651222   -2.2523546022    1.5195067360
C       -4.1284787859    1.8600274287    2.3107417941
C       -4.6385760554   -0.4635434460    2.6506504806
C       -5.3741892091    2.2119858417    2.8429071188
C       -5.8856781048   -0.1054314437    3.1767465868
C       -3.7276664708    0.5161013383    2.1948074356
C       -6.2666256623    1.2324398515    3.2776409382
C       -2.3901562704    0.2463690001    1.6059992541
C       -0.3696257212   -1.0527428876    0.8011800953
C       -1.7355851253   -0.9573049848    1.3446762704
C        1.6313297580    1.8713509921    1.1446183780
N       -2.7847908829   -3.3213752187    1.6388965970
N        0.5973867405   -0.2022592971    0.7263207960
O        0.4439253483    1.0907185514    1.2804449676
Cl      -7.8241021937    1.6703970641    3.9345481689
H       -3.4660652870    2.6533841240    1.9837053326
H       -4.4349133487   -1.5220778415    2.6226591456
H       -5.6555371618    3.2556819131    2.9197904495
H       -6.5683197679   -0.8779598924    3.5118582397
H       -1.8740118319    1.1459730022    1.3042164446
H       -0.0963289350   -2.0275016872    0.4114587412
H        1.4455877417    2.8893777071    1.4988410180
H        1.9397903724    1.9140215199    0.0954523159
H        2.4392138110    1.4324943651    1.7377972841
24   

C       -2.2844868117   -2.2454691416    1.5651327103
C       -4.1940641114    1.8551063980    2.1710906048
C       -4.5885734739   -0.4540628954    2.7077635130
C       -5.4168987727    2.2008349857    2.7578022332
C       -5.8124998759   -0.1026364505    3.2897214041
C       -3.7486880240    0.5214423133    2.1253108486
C       -6.2395175010    1.2248748289    3.3202051547
C       -2.4422211952    0.2540570950    1.4720701116
C       -0.4373548208   -1.0072448735    0.6072751960
C       -1.7708317108   -0.9438636456    1.2377005839
C        1.6299238583    1.7783692227    1.3660858806
N       -2.6660228927   -3.3193372852    1.8064968967
N        0.5489456292   -0.1778049219    0.6231290584
O        0.4154488442    1.0282261343    1.3536754407
Cl      -7.7678674075    1.6546834166    4.0471885607
H       -3.5855744846    2.6442756775    1.7443664719
H       -4.3428336023   -1.5036847587    2.7402143447
H       -5.7349684431    3.2365927080    2.7778656431
H       -6.4402856605   -0.8720164020    3.7245243157
H       -1.9579025138    1.1408326114    1.0837686833
H       -0.2028615946   -1.9417117091    0.1092067742
H        1.4650503598    2.7387278615    1.8629324739
H        1.9714458058    1.9646268606    0.3431525807
H        2.4055377843    1.2286561157    1.9077617099
24   

C       -2.2014762762   -2.2074926695    1.6283605722
C       -4.2564169405    1.8499054837    2.0969035932
C       -4.5706515631   -0.4517785145    2.7137603283
C       -5.4599627641    2.1840356580    2.7284203837
C       -5.7737985678   -0.1115645553    3.3437686773
C       -3.7805763636    0.5265084786    2.0703063881
C       -6.2308623881    1.2063400267    3.3573791552
C       -2.4976724855    0.2700673631    1.3697776603
C       -0.5021179045   -0.9380206954    0.4388648750
C       -1.8013247417   -0.9149542721    1.1508452071
C        1.6247777885    1.6730732772    1.5381179150
N       -2.4961589843   -3.2746553119    1.9908043205
N        0.5031068940   -0.1406384770    0.5380601091
O        0.3888096396    0.9703698484    1.4102162367
Cl      -7.7332784015    1.6221851777    4.1440657410
H       -3.6874428784    2.6395719432    1.6195521207
H       -4.2998312653   -1.4949119598    2.7575073753
H       -5.8030255009    3.2119859480    2.7322074632
H       -6.3616221929   -0.8820960972    3.8293983251
H       -2.0427555211    1.1511106993    0.9322359849
H       -0.3075975947   -1.8226466182   -0.1572111223
H        1.4863410411    2.5495427499    2.1776016534
H        1.9751151881    2.0046457646    0.5557965327
H        2.3822518331    1.0238193463    1.9875605185
24   

C       -2.0782022028   -2.1270413610    1.6999928338
C       -4.3209024226    1.8475582105    2.0208495818
C       -4.5339717652   -0.4425304128    2.7195995221
C       -5.5126036906    2.1615415148    2.6842524251
C       -5.7238535472   -0.1218497243    3.3841861728
C       -3.8002436276    0.5410598214    2.0206637331
C       -6.2251596551    1.1800661320    3.3734218398
C       -2.5339816340    0.3039435914    1.2856720389
C       -0.5399750684   -0.8445091345    0.2985601235
C       -1.8025910781   -0.8618576309    1.0870999530
C        1.6707074210    1.5442523840    1.6785111519
N       -2.2778406228   -3.1726990612    2.1731163128
N        0.4930966750   -0.1014586829    0.4732040384
O        0.4140953790    0.8984245213    1.4746901655
Cl      -7.7108853939    1.5716245104    4.2030826524
H       -3.7972313729    2.6392013218    1.4971699775
H       -4.2267420804   -1.4748839448    2.7803006261
H       -5.8917319025    3.1766074745    2.6664473659
H       -6.2664642277   -0.8950191069    3.9160068209
H       -2.1157145903    1.1814400491    0.8048731391
H       -0.4008834978   -1.6618529656   -0.3998017078
H        1.5771906774    2.2915091562    2.4716935319
H        1.9914822232    2.0431547510    0.7589205205
H        2.4292501376    0.8118139791    1.9711659977
24   

C       -1.9593587537   -1.9841903262    1.7756269911
C       -4.4617689645    1.8452865637    1.8971412888
C       -4.4920449104   -0.3952692026    2.7675353379
C       -5.6483488714    2.1285057734    2.5831952917
C       -5.6766170759   -0.1048414698    3.4551119994
C       -3.8528357582    0.5797022973    1.9708118245
C       -6.2665245083    1.1566392582    3.3702205424
C       -2.6000933674    0.3712672955    1.2052107679
C       -0.5913677596   -0.7076714819    0.1827039262
C       -1.8084924971   -0.7598974629    1.0500869482
C        1.7804403099    1.3455092147    1.7992089063
N       -2.0628537246   -2.9973352826    2.3413835914
N        0.4870932254   -0.0532008256    0.4128416858
O        0.4875523279    0.7948301785    1.5486147578
Cl      -7.7451375602    1.5104831115    4.2290164205
H       -4.0131177250    2.6281659243    1.2963552833
H       -4.1116063266   -1.3974198566    2.8900002812
H       -6.0973372822    3.1118641105    2.5067019322
H       -6.1450859375   -0.8699029685    4.0636017176
H       -2.2471487153    1.2386964870    0.6581047270
H       -0.5491583895   -1.4131837293   -0.6388981524
H        1.7631616104    1.9183936047    2.7307499330
H        2.0702317746    2.0106456824    0.9801535142
H        2.5225347167    0.5463567306    1.8904339518
24   

C       -1.8204039539   -1.7665053661    1.8704163927
C       -4.7137568356    1.7777011062    1.7018083655
C       -4.4389072464   -0.3151591273    2.8519806432
C       -5.8938952147    2.0157251096    2.4155309194
C       -5.6193570293   -0.0708591982    3.5641550472
C       -3.9566268244    0.6089042890    1.8994020027
C       -6.3580938871    1.0938592862    3.3539512972
C       -2.7212733652    0.4431577602    1.0958676624
C       -0.6367086240   -0.5113007818    0.1076312839
C       -1.7989260670   -0.5941815260    1.0501650071
C        1.9805578352    1.0623365813    1.8711405653
N       -1.8226630898   -2.7375561879    2.5142924821
N        0.4983718764    0.0267339744    0.3584962557
O        0.6407660832    0.6326582228    1.6320185600
Cl      -7.8296657752    1.3910548638    4.2456650140
H       -4.3875739230    2.5199891503    0.9822919814
H       -3.9349629199   -1.2408952842    3.0822438613
H       -6.4582448344    2.9246056613    2.2425486824
H       -5.9668507846   -0.7957613179    4.2913606631
H       -2.4961186677    1.2677925461    0.4286496809
H       -0.7530895341   -0.9829663978   -0.8609406782
H        2.0617760047    1.4697161266    2.8829335860
H        2.2596991776    1.8397140525    1.1535003325
H        2.6719397001    0.2197687318    1.7733595113
24   

C       -1.6789809878   -1.4939832064    1.9678020214
C       -4.9959028258    1.6191444301    1.5011762656
C       -4.3760894215   -0.1992609416    2.9460731507
C       -6.1719754317    1.8039060594    2.2369459763
C       -5.5558652924   -0.0117397314    3.6763997857
C       -4.0697848337    0.6135615907    1.8327771862
C       -6.4644224142    0.9889849854    3.3306299586
C       -2.8494901250    0.4972908621    0.9978790981
C       -0.6615269247   -0.2592715571    0.0810745943
C       -1.7741845763   -0.3789471581    1.0744385095
C        2.2074934603    0.7388886913    1.8789530282
N       -1.5904937429   -2.4176017058    2.6727528432
N        0.5292294732    0.1428865108    0.3309301293
O        0.8228212865    0.4564621055    1.6820657115
Cl      -7.9325482972    1.2180721550    4.2477427657
H       -4.8064699398    2.2756243270    0.6596412316
H       -3.7301469654   -0.9907347200    3.2931068719
H       -6.8674646723    2.5875758876    1.9600461997
H       -5.7683718971   -0.6511905902    4.5255220072
H       -2.7685857375    1.2361830510    0.2085003505
H       -0.9108419966   -0.4135984826   -0.9620334841
H        2.3848207490    0.9961863422    2.9271307340
H        2.5138444252    1.5815354547    1.2517104946
H        2.8110860004   -0.1371001085    1.6230765445
24   

C       -2.2439047991   -2.3543558026    1.8998735438
C       -4.2731693725    1.7196443298    1.5833923935
C       -4.3838552379   -0.2842783064    2.9065181270
C       -5.3859750970    2.2298965209    2.2614264185
C       -5.5002251204    0.2293035634    3.5777444604
C       -3.7459843902    0.4502055542    1.8830350875
C       -6.0123918478    1.4883863866    3.2631041328
C       -2.5612985691   -0.0031990763    1.1143311918
C       -0.6748079127   -1.3588787566    0.2536256830
C       -1.8425303048   -1.1919826809    1.1630587128
C        2.0341661370   -2.5762768374    2.1710739950
N       -2.5683259187   -3.3135102534    2.4769440855
N        0.5147122748   -1.7077308038    0.5856394239
O        0.7477258442   -1.9993783227    1.9534640621
Cl      -7.4030757215    2.1233778684    4.1067471646
H       -3.8162169891    2.3296565928    0.8126242655
H       -4.0498202517   -1.2587813704    3.2276791730
H       -5.7704514220    3.2117418111    2.0110010313
H       -5.9745017199   -0.3570290762    4.3564127567
H       -2.1752990253    0.7273116540    0.4122413062
H       -0.7980652418   -1.0248351979   -0.7697914721
H        2.1752279490   -2.7665071275    3.2389090561
H        2.8169690617   -1.8934235906    1.8273252064
H        2.1195026464   -3.5229791890    1.6292804288
24   

C       -2.0704835847   -2.1765831022    2.0973384390
C       -4.3910594389    1.6979416350    1.5157923272
C       -4.3517530676   -0.2101332665    2.9771467757
C       -5.5424355594    2.1673822099    2.1577718345
C       -5.5071278650    0.2618931348    3.6120407138
C       -3.7683684574    0.4970199480    1.9029734117
C       -6.1137243760    1.4522683287    3.2101221045
C       -2.5497855433    0.0847349293    1.1635617690
C       -0.5779881383   -1.1589223108    0.3723664611
C       -1.7447115288   -1.0443273593    1.2781984468
C        2.0639465289   -2.8405409356    2.0267711492
N       -2.3362992392   -3.1104146400    2.7423212058
N        0.5878657615   -1.6353078195    0.6300090262
O        0.8393056146   -2.1143717573    1.9401952388
Cl      -7.5525862959    2.0359502547    4.0088195628
H       -3.9805592726    2.2858044936    0.7028301297
H       -3.9453388645   -1.1303937436    3.3671442704
H       -6.0005876842    3.0964259580    1.8390780211
H       -5.9379048205   -0.3028972974    4.4308773390
H       -2.2220426135    0.7992411445    0.4168189383
H       -0.6754050178   -0.6943751468   -0.6017870726
H        2.1982956037   -3.2123152370    3.0466369012
H        2.9061095223   -2.1895622852    1.7737011395
H        2.0481014450   -3.6920391519    1.3398998443
24   

C       -1.9331843839   -2.0117265858    2.3022586233
C       -4.4546558288    1.6850498811    1.4837237429
C       -4.3563221159   -0.1587733610    3.0222286374
C       -5.6387744861    2.1256387597    2.0851113465
C       -5.5439425806    0.2846817089    3.6171096863
C       -3.7837370054    0.5315561332    1.9311244075
C       -6.1965349135    1.4283138019    3.1562221847
C       -2.5334465287    0.1497197693    1.2273487696
C       -0.4981836799   -1.0008384557    0.5017708120
C       -1.6683757304   -0.9290097054    1.3971401852
C        2.0865224729   -3.0258623365    1.8565261940
N       -2.1511295302   -2.9042535766    3.0199335604
N        0.6362471710   -1.5849676878    0.6701434873
O        0.8890429362   -2.2521023708    1.8942985238
Cl      -7.6757084075    1.9762661482    3.9050161457
H       -4.0573015597    2.2583539403    0.6540016310
H       -3.9197482856   -1.0444853202    3.4562572972
H       -6.1333249382    3.0180951188    1.7196461368
H       -5.9643429552   -0.2661888794    4.4506982691
H       -2.2407354784    0.8474573692    0.4508518052
H       -0.5664893234   -0.4295907990   -0.4165351938
H        2.2058879207   -3.5619265710    2.8024795229
H        2.9515297163   -2.3726131188    1.7083382674
H        2.0413162846   -3.7542601328    1.0413772415
24   

C       -3.0037669818   -1.9072035395    0.4048070009
C       -4.0618555684    2.0851304993    2.3031552344
C       -4.5763460540   -0.2496247666    2.5461116441
C       -4.9574609253    2.3914407196    3.3336222292
C       -5.4731656485    0.0635531621    3.5750464107
C       -3.8475099325    0.7600284823    1.8790385842
C       -5.6731771835    1.3836865826    3.9788757063
C       -2.8742488888    0.5439794083    0.7776653060
C       -1.4551786517   -0.4364430594   -0.9468528024
C       -2.4541737722   -0.6113352694    0.1190144262
C       -0.0626534301   -3.4973566924   -2.1183067223
N       -3.4558520635   -2.9594381398    0.6237262374
N       -0.7349434441   -1.2952464606   -1.5813668447
O       -0.8267653284   -2.6679777903   -1.2454115279
Cl      -6.7921355234    1.7656914351    5.2637482511
H       -3.5276686742    2.9013461845    1.8304633129
H       -4.4863002273   -1.2984240116    2.3122593375
H       -5.1014770348    3.4213420957    3.6389126235
H       -6.0214594030   -0.7307506554    4.0685453897
H       -2.4055965418    1.4592692771    0.4343196591
H       -1.2589432657    0.5865398431   -1.2454347611
H       -0.2081564807   -4.5466990592   -1.8459237350
H        1.0005427955   -3.2539122966   -2.0333049524
H       -0.3836745666   -3.3537009274   -3.1543240894
24   

C       -2.8064510763   -1.9340898269    0.6016928390
C       -4.1005821068    2.0891615411    2.2728722055
C       -4.5687924803   -0.2494549020    2.5658909275
C       -5.0370945637    2.4026640750    3.2640247120
C       -5.5048855012    0.0707302939    3.5570182197
C       -3.8397614583    0.7580845735    1.8956682815
C       -5.7487011129    1.3964055142    3.9159715591
C       -2.8260384852    0.5361317394    0.8321666267
C       -1.3163649093   -0.4483061282   -0.8066626124
C       -2.3401342554   -0.6264459398    0.2329625435
C       -0.1534758454   -3.4866488125   -2.2637575642
N       -3.1822282534   -2.9974094686    0.8979615975
N       -0.6806834443   -1.3002315620   -1.5344412011
O       -0.9399046273   -2.6842558318   -1.3855915688
Cl      -6.9175859779    1.7871969861    5.1528512097
H       -3.5714776792    2.9048096632    1.7935302042
H       -4.4525381343   -1.3016299215    2.3612119945
H       -5.2165280765    3.4370962512    3.5331013775
H       -6.0505309681   -0.7224104592    4.0553071003
H       -2.3904660149    1.4566317179    0.4605119223
H       -1.0303015089    0.5760338441   -1.0139346281
H       -0.4019199724   -4.5415741765   -2.1157426617
H        0.9107226999   -3.3415172449   -2.0556138871
H       -0.3572517059   -3.2182169332   -3.3046074075
24   

C       -2.6037150066   -1.9405237091    0.7925119273
C       -4.1288904014    2.0903441500    2.2375542245
C       -4.5528486136   -0.2517459341    2.5687184729
C       -5.1059136197    2.4034492543    3.1889650753
C       -5.5277957474    0.0679588566    3.5217947436
C       -3.8231839262    0.7577312574    1.9022725718
C       -5.8141523226    1.3951889710    3.8416291609
C       -2.7699888712    0.5350738637    0.8784614981
C       -1.1717387396   -0.4595188385   -0.6722969044
C       -2.2227508215   -0.6306577548    0.3430446736
C       -0.3008243793   -3.4776926106   -2.3496264629
N       -2.8998298434   -3.0057616941    1.1627717825
N       -0.6315431738   -1.3036699054   -1.4813762099
O       -1.0809412117   -2.6466581243   -1.4926011136
Cl      -7.0323608174    1.7854897743    5.0301273881
H       -3.6038092780    2.9072397789    1.7559174970
H       -4.4099918997   -1.3048804653    2.3863351816
H       -5.3198657745    3.4390984784    3.4262299597
H       -6.0713809121   -0.7266470551    4.0199967113
H       -2.3628957397    1.4554652694    0.4754357150
H       -0.7922069355    0.5482501446   -0.7927646206
H       -0.6572544491   -4.5096040534   -2.2818018805
H        0.7513846388   -3.4472582878   -2.0513700543
H       -0.3916496156   -3.1394054677   -3.3860563512
24   

C       -2.3822467273   -1.9342920784    0.9819202827
C       -4.1496701826    2.0772586199    2.1943720422
C       -4.5111196910   -0.2692374377    2.5681198257
C       -5.1674792758    2.3806478699    3.1053940129
C       -5.5256600699    0.0407982118    3.4822070559
C       -3.7905953802    0.7478110100    1.9037619316
C       -5.8637918610    1.3653655318    3.7603805485
C       -2.6990726842    0.5319532124    0.9207631793
C       -1.0146782546   -0.4750098126   -0.5425437729
C       -2.0923631645   -0.6314481071    0.4525429521
C       -0.4938666659   -3.4498952380   -2.4119259108
N       -2.5973642782   -2.9927854680    1.4206393837
N       -0.5810479191   -1.3027337013   -1.4276379628
O       -1.2097047914   -2.5665001388   -1.5509528368
Cl      -7.1318692070    1.7437297772    4.8995579379
H       -3.6351765407    2.8984936258    1.7087042847
H       -4.3315291543   -1.3209588573    2.4095809504
H       -5.4228931084    3.4140415232    3.3090677964
H       -6.0602232962   -0.7591097463    3.9816608751
H       -2.3187888459    1.4487144785    0.4844191801
H       -0.5471315263    0.5015435351   -0.5874606505
H       -0.9934475580   -4.4226762989   -2.4354812504
H        0.5288190366   -3.5870618107   -2.0481103685
H       -0.4635625576   -3.0429567662   -3.4270263268
24   

C       -2.1693763200   -1.9215364679    1.1806625953
C       -4.1794523239    2.0576953124    2.1125190346
C       -4.4465002173   -0.2834340391    2.5874475262
C       -5.2400163200    2.3549885128    2.9756524911
C       -5.5035586427    0.0207541252    3.4539965382
C       -3.7511023090    0.7345539093    1.8986782055
C       -5.9105035201    1.3396594729    3.6573613921
C       -2.6203047820    0.5208194839    0.9619870979
C       -0.8439075396   -0.5089418113   -0.3960750777
C       -1.9560263726   -0.6386659650    0.5740871196
C       -0.7201894229   -3.3775654712   -2.4701407427
N       -2.3190484127   -2.9636241207    1.6810205562
N       -0.5247051474   -1.3040526962   -1.3544188793
O       -1.3175618893   -2.4620245467   -1.5539067403
Cl      -7.2315434219    1.7107393210    4.7372178745
H       -3.6868918976    2.8778171304    1.6028261178
H       -4.2136223786   -1.3316732950    2.4823163523
H       -5.5494214379    3.3835037509    3.1206230971
H       -6.0175142372   -0.7792252957    3.9745115922
H       -2.2641701435    1.4265314002    0.4840567262
H       -0.2842549495    0.4185644043   -0.3679333090
H       -1.3525669484   -4.2648197394   -2.5664325022
H        0.2660373132   -3.6845108247   -2.1092609307
H       -0.6141662324   -2.9102410952   -3.4537156204
24   

C       -1.9618382707   -1.9123904372    1.4231887960
C       -4.2098885697    2.0167535738    1.9901491089
C       -4.3613216530   -0.2914532940    2.6441982504
C       -5.3107814279    2.3192446103    2.7994550905
C       -5.4590849402    0.0182633202    3.4563398871
C       -3.7033095429    0.7077916161    1.8942183381
C       -5.9442503678    1.3235128028    3.5429710879
C       -2.5361369244    0.4836974797    1.0067333408
C       -0.6713298334   -0.5808436197   -0.2283932748
C       -1.8111469812   -0.6687101956    0.7262932735
C       -0.9782198146   -3.2381804996   -2.5394636381
N       -2.0584385977   -2.9235134572    1.9946246022
N       -0.4720696734   -1.3200230093   -1.2584505560
O       -1.4100375809   -2.3538849602   -1.5066702041
Cl      -7.3156662122    1.7013864948    4.5555830960
H       -3.7482152814    2.8205987126    1.4282848504
H       -4.0666267835   -1.3293648122    2.6286564520
H       -5.6810515389    3.3363632289    2.8535157183
H       -5.9433849730   -0.7667407073    4.0257910931
H       -2.2084543825    1.3640777995    0.4653219225
H       -0.0129172922    0.2740377090   -0.1292360696
H       -1.7366171440   -4.0090828286   -2.7034764807
H       -0.0391021154   -3.7215793706   -2.2540406505
H       -0.8290924124   -2.6850874033   -3.4717026559
24   

C       -2.7750763730   -1.6415483457    0.1851310177
C       -3.6708491633    1.5632132956    3.3221695619
C       -4.8006272779   -0.1615461464    2.0863538041
C       -4.8596462875    1.8576900831    3.9994414058
C       -5.9862140886    0.1354876681    2.7694093148
C       -3.6081857981    0.5466842274    2.3518030819
C       -6.0285773711    1.1454438360    3.7309999538
C       -2.3053903347    0.3107139042    1.6833449549
C       -0.5259410879   -0.6120492509    0.2060571793
C       -1.9375490094   -0.6014390722    0.7022061101
C       -0.6264586626    0.4088996934   -3.1715987968
N       -3.4334874745   -2.5064157008   -0.2348218939
N       -0.1358068793   -0.2412133178   -0.9569651526
O       -1.1448211494    0.1707858736   -1.8637508001
Cl      -7.5115652707    1.5114544048    4.5770245908
H       -2.7858065078    2.1421997445    3.5598732405
H       -4.8661346436   -0.9516509103    1.3545628263
H       -4.8797759374    2.6473131806    4.7414713362
H       -6.8873726172   -0.4249686930    2.5483485128
H       -1.5096656664    0.9788689310    1.9932098924
H        0.2502588618   -0.8417894346    0.9263223775
H       -1.4327083023    0.7412463870   -3.8317727625
H       -0.1926082032   -0.5095402165   -3.5782986092
H        0.1440848696    1.1850297942   -3.1367017110
24   

C       -2.7790387869   -1.9152037591    0.3546117579
C       -3.6953208584    1.7219457799    2.9806386186
C       -4.7588739172   -0.2798929373    2.1806168759
C       -4.8624787574    2.0666404301    3.6717975152
C       -5.9242621950    0.0709366053    2.8728110769
C       -3.6116252741    0.5424168417    2.2190131479
C       -5.9885212372    1.2446087373    3.6243898541
C       -2.3330293761    0.2600159586    1.5228933094
C       -0.5583397116   -0.8588911705    0.1693292580
C       -1.9458142884   -0.8154070930    0.7339882373
C       -0.6996153969    0.7417461904   -2.9698170990
N       -3.4308139552   -2.8296480693    0.0439674806
N       -0.1841475263   -0.3502671353   -0.9450962576
O       -1.1720153063    0.3510791941   -1.6810013848
Cl      -7.4453896766    1.6749608125    4.4853966095
H       -2.8429553557    2.3887747924    3.0431246307
H       -4.8027743671   -1.2040922874    1.6257222732
H       -4.8989942776    2.9812666557    4.2519734826
H       -6.7919613484   -0.5770644684    2.8253365413
H       -1.5671716602    1.0173029843    1.6488948078
H        0.1879289081   -1.4027890546    0.7362536211
H       -1.5071391672    1.2248379150   -3.5273187090
H       -0.3587967265   -0.1342446105   -3.5301523533
H        0.1307892226    1.4469173339   -2.8678464576
24   

C       -2.7784924222   -2.1329244016    0.5281639594
C       -3.7275830923    1.7934742962    2.6787565014
C       -4.7120767516   -0.3618463852    2.2738966931
C       -4.8674776202    2.1807816073    3.3925437003
C       -5.8516259786    0.0326528267    2.9853281394
C       -3.6192327985    0.5155986318    2.1014763279
C       -5.9413178995    1.3046227932    3.5515202626
C       -2.3710970334    0.1933911611    1.3684141969
C       -0.6171275668   -1.0473501612    0.0925855276
C       -1.9609721403   -0.9785651576    0.7450245941
C       -0.7131213378    1.0254441948   -2.7616953589
N       -3.4144568997   -3.0919897034    0.3465041991
N       -0.2442146510   -0.4224458250   -0.9631557509
O       -1.1598700859    0.5132695892   -1.5064307594
Cl      -7.3650169578    1.7884430601    4.4392346070
H       -2.9151074279    2.5040269668    2.5781213993
H       -4.7313465665   -1.3639601759    1.8746268285
H       -4.9232411262    3.1710581813    3.8292151448
H       -6.6786899350   -0.6586687241    3.0997077286
H       -1.6448079952    0.9976549383    1.3237781694
H        0.0571853302   -1.8176973761    0.4481499014
H       -1.4819964937    1.6748868718   -3.1898528668
H       -0.5166834816    0.2047460360   -3.4584944176
H        0.2043508938    1.6058397170   -2.6251970285
24   

C       -2.7938317289   -2.2821252747    0.6732330714
C       -3.7697997479    1.8041637094    2.4840618570
C       -4.6947526939   -0.4101115556    2.3438218889
C       -4.8890489200    2.2264158761    3.2105655511
C       -5.8135983357    0.0188414163    3.0680665228
C       -3.6426338458    0.4786098474    2.0315765660
C       -5.9225397735    1.3381227020    3.5085944707
C       -2.4182921599    0.1236755405    1.2734455546
C       -0.7136005239   -1.1923728431   -0.0040303020
C       -2.0063385797   -1.0866337586    0.7267614363
C       -0.6360357877    1.2017599117   -2.6038568563
N       -3.4021381866   -3.2742279494    0.6203845713
N       -0.3019883649   -0.4844557437   -0.9935787822
O       -1.1187964084    0.5990265321   -1.4032848612
Cl      -7.3202500074    1.8649165415    4.4129894752
H       -2.9887443308    2.5256565986    2.2729360700
H       -4.6966794232   -1.4478951569    2.0491065109
H       -4.9601115673    3.2536802046    3.5483423511
H       -6.6090667326   -0.6827205580    3.2918711493
H       -1.7155876375    0.9382932406    1.1366417789
H       -0.1152608568   -2.0711860012    0.2075980875
H       -1.3038130752    2.0146929499   -2.9030059790
H       -0.5974439245    0.4620847447   -3.4094001267
H        0.3670102979    1.6089387241   -2.4440353064
24   

C       -2.7889644805   -2.3645686435    0.7919289066
C       -3.8048763990    1.8038877779    2.3716846136
C       -4.6992243665   -0.4270464991    2.3637882056
C       -4.9017337505    2.2415509333    3.1228981584
C       -5.7941464845    0.0165965164    3.1151742276
C       -3.6726468078    0.4613024110    1.9735482218
C       -5.9068846503    1.3519822646    3.5024833647
C       -2.4708238887    0.0922584905    1.1849842558
C       -0.8159179975   -1.2735207655   -0.1204371556
C       -2.0577708428   -1.1355286286    0.6758838724
C       -0.5094791461    1.3306972185   -2.5028144649
N       -3.3477884854   -3.3835832967    0.8717183949
N       -0.3458310392   -0.5129112420   -1.0460099146
O       -1.0573591037    0.6712889721   -1.3614299390
Cl      -7.2749458070    1.8970250008    4.4407863069
H       -3.0455575213    2.5273019457    2.0973150164
H       -4.7004326960   -1.4758494509    2.1120146279
H       -4.9771300434    3.2819263032    3.4167039188
H       -6.5679178374   -0.6862495022    3.4021851541
H       -1.7888960698    0.9136417017    0.9981903710
H       -0.2858574854   -2.2126750414   -0.0076280734
H       -1.0543206250    2.2607641977   -2.6883614980
H       -0.5945716157    0.6892697231   -3.3852163201
H        0.5453959806    1.5674008301   -2.3330198752
24   

C       -2.7815145362   -2.3991857624    0.9062001447
C       -3.8490744759    1.8150176890    2.2950553018
C       -4.7193042380   -0.4236778252    2.3778534907
C       -4.9160581171    2.2594436844    3.0844324150
C       -5.7821414814    0.0260814709    3.1704862764
C       -3.7181742299    0.4642397371    1.9244047101
C       -5.8914506611    1.3686997675    3.5324058982
C       -2.5457845007    0.0888277010    1.0939490769
C       -0.9450626231   -1.3233069336   -0.2483162967
C       -2.1293498216   -1.1518267352    0.6163826867
C       -0.3577921814    1.4239859067   -2.4200587576
N       -3.2741787862   -3.4324646027    1.1221543813
N       -0.4089312742   -0.5383205065   -1.1185803382
O       -0.9991622215    0.7279501491   -1.3514162678
Cl      -7.2197169786    1.9213593301    4.5220374791
H       -3.1120371875    2.5399946148    1.9689797956
H       -4.7263273049   -1.4767023581    2.1449668019
H       -4.9908483069    3.3060388278    3.3553756340
H       -6.5336677575   -0.6777037426    3.5096161380
H       -1.8928876377    0.9194473604    0.8583443184
H       -0.4840861247   -2.3044854291   -0.2155116703
H       -0.7818500125    2.4278899302   -2.5132259272
H       -0.5086483161    0.8877009570   -3.3617672998
H        0.7157091637    1.5112857529   -2.2259057931
24   

C       -2.7625250196   -2.4233510535    0.9849671145
C       -3.9352840917    1.8079121922    2.1874711647
C       -4.7206374934   -0.4516678630    2.4169273330
C       -4.9681653862    2.2522093914    3.0208877403
C       -5.7478899557   -0.0019308851    3.2552847464
C       -3.7782032441    0.4466515329    1.8675737816
C       -5.8819790839    1.3510146861    3.5666272722
C       -2.6426549891    0.0745281787    0.9845665778
C       -1.0839655371   -1.3696797884   -0.3937241613
C       -2.2076454588   -1.1732093543    0.5384782330
C       -0.1696184211    1.4804500688   -2.3200964210
N       -3.1756842026   -3.4587968451    1.3228927636
N       -0.4793282197   -0.5709315366   -1.2063911282
O       -0.9251859940    0.7651821375   -1.3427004822
Cl      -7.1657114284    1.9035738521    4.6134279203
H       -3.2459815214    2.5420769056    1.7861959099
H       -4.7083408992   -1.5131772095    2.2270023766
H       -5.0639503471    3.3070132263    3.2502010991
H       -6.4520927889   -0.7139513743    3.6702673064
H       -2.0455845417    0.9233230242    0.6844191019
H       -0.6973052133   -2.3820538991   -0.4418699740
H       -0.4737751845    2.5310791704   -2.3245640458
H       -0.3451098017    1.0573175858   -3.3137137328
H        0.8989193058    1.4239187707   -2.0903771650
24   

C       -2.3715542403   -2.2612576559    1.4629268454
C       -4.0654349814    1.8165449114    2.5493225704
C       -4.7181145256   -0.4957461246    2.5172539987
C       -5.3424413748    2.1719956071    2.9978000128
C       -5.9946736121   -0.1334339250    2.9641592950
C       -3.7168106342    0.4766712089    2.2940665440
C       -6.3202386469    1.2005190779    3.2082771127
C       -2.3336624476    0.2081052437    1.8180530640
C       -0.3066549176   -1.1016173049    1.0097831080
C       -1.7047745089   -0.9856679089    1.4557584021
C        1.6027906771    1.9101153491    0.8969263861
N       -2.8641904705   -3.3168744827    1.4499392175
N        0.6380703922   -0.2364984354    0.8541275615
O        0.4308129739    1.1322241634    1.1392034518
Cl      -7.9146319814    1.6434238448    3.7656819606
H       -3.3370608509    2.6052485169    2.3986696109
H       -4.5665340688   -1.5520564713    2.3641787957
H       -5.5809183064    3.2124034521    3.1851718888
H       -6.7442400142   -0.8998987301    3.1245944022
H       -1.7528750405    1.1125367084    1.7462517541
H        0.0122760578   -2.1066334250    0.7545650616
H        1.3976338131    2.9623161837    1.1141246575
H        1.9072013439    1.8187173668   -0.1501607243
H        2.4207650889    1.5699363214    1.5392039590
