28

C      2.00716   -4.59140   -4.02566
C      2.58493   -1.92817    1.96007
C      1.51368   -1.32593    2.62520
C      1.95429   -0.81278   -0.09152
C      2.78772   -3.73068   -3.21802
C      2.81584   -1.67217    0.60371
C      0.66908   -0.47469    1.92126
C      0.87812   -0.21520    0.56366
C      3.69278   -2.69310   -3.61465
C      2.79764   -3.70873   -1.81698
C      4.05198   -2.28782   -5.00850
C      3.99421   -2.30708   -0.11444
N      1.34917   -5.31020   -4.67081
N      4.20775   -2.08598   -2.55423
N      3.66681   -2.73344   -1.46151
N      2.16101   -4.51878   -0.89131
F     -0.36803    0.09579    2.56477
Br    -0.30749    0.94118   -0.37575
H      3.24089   -2.60185    2.50584
H      1.31681   -1.51116    3.67673
H      2.12038   -0.61344   -1.14586
H      3.15942   -2.00746   -5.57712
H      4.73771   -1.43866   -4.98311
H      4.53250   -3.11431   -5.54243
H      4.81640   -1.59603   -0.22137
H      4.36192   -3.16684    0.45572
H      1.76012   -4.01643   -0.10355
H      1.47530   -5.13285   -1.32037
