34

C     -0.85262    1.32914    0.07123
C     -0.36398    0.18652   -0.57647
C     -8.21524    1.06276    3.41040
C     -7.22020    0.96563    2.43452
C     -7.87192    1.12192    4.76325
C     -1.98153    1.23366    0.87780
C     -1.01424   -1.03221   -0.41228
C     -5.54172    0.96201    4.18302
C     -5.87800    0.89643    2.82208
C     -6.52751    1.08609    5.16835
C     -2.65187    0.01194    1.04290
C     -2.16594   -1.13488    0.38842
C     -4.82249    0.86246    1.75359
C     -3.98081   -1.32803    2.61048
C     -4.30174   -2.44172    1.61637
C     -6.16115    1.19584    6.63083
N     -3.78075   -0.05146    1.91882
O     -4.87011    1.64883    0.81266
S     -2.89498   -2.75547    0.49312
H     -0.35351    2.28650   -0.04811
H      0.52038    0.24465   -1.20520
H     -9.26068    1.10066    3.11538
H     -7.47113    0.95119    1.37805
H     -8.65449    1.20565    5.51475
H     -2.36911    2.11156    1.38283
H     -0.63718   -1.92061   -0.91346
H     -4.49369    0.93390    4.47388
H     -4.80712   -1.22983    3.31116
H     -3.07723   -1.57167    3.17786
H     -4.48803   -3.38298    2.14102
H     -5.19226   -2.18016    1.03882
H     -6.73863    0.49160    7.23900
H     -5.09944    0.99178    6.79450
H     -6.36915    2.20196    7.01267
