40

C      0.93969   -1.43184   -0.60024
C     -0.27146   -1.19266    0.08495
C      1.78022   -2.48004   -0.23125
C     -0.66672   -1.99543    1.15555
C      6.89745   -4.66985    3.62455
C      1.40613   -3.30777    0.84298
C      2.00305   -4.44756    1.49031
C      0.17970   -3.04592    1.52405
C      5.92323   -5.17456    2.71692
C      1.15866   -4.83682    2.50160
C      7.85255   -4.11898    2.81475
C      4.71441   -5.95452    3.14950
C      3.31103   -5.13582    1.21089
C      1.40277   -5.99341    3.41777
C      9.29853   -2.56498    4.29242
C     10.02304   -3.87927    4.20100
C      2.50153   -6.86427    2.78125
C      9.12934   -3.43047    3.05133
N      6.26110   -4.95830    1.45844
N      0.05736   -3.99161    2.53298
N      3.62936   -6.04394    2.32525
O      4.77179   -6.52657    4.24460
O      7.48665   -4.28586    1.51667
H      1.21724   -0.78537   -1.42857
H     -0.90709   -0.36775   -0.22568
H      2.71056   -2.65436   -0.76651
H     -1.59929   -1.80599    1.68202
H      6.86991   -4.73969    4.70165
H      3.26791   -5.71625    0.27897
H      4.11554   -4.41467    1.08773
H      1.72837   -5.65556    4.40955
H      0.49641   -6.59583    3.55834
H      8.44562   -2.49326    4.96020
H      9.86867   -1.64776    4.18113
H     11.09447   -3.87163    4.02567
H      9.66472   -4.70743    4.80444
H      2.87708   -7.60041    3.48949
H      2.09613   -7.38203    1.90484
H      9.62237   -3.09726    2.14375
H     -0.72045   -4.07057    3.17222
