31

C     -0.03220   -1.25073    1.33810
C     -0.14834   -1.03014   -0.04048
C     -3.26496   -4.36008    2.53240
C     -2.00952   -4.69881    2.02425
C      0.34433   -2.50748    1.80537
C     -3.50834   -4.39249    3.90917
C      0.11772   -2.06290   -0.93786
C     -1.22432   -5.16333    4.27482
C     -0.98485   -5.09260    2.89668
C      0.56283   -3.56503    0.91191
C     -2.47560   -4.79525    4.75133
C      0.46776   -3.34213   -0.47466
C      0.35319   -5.56052    2.39940
C      2.03284   -5.48631    0.61590
C      1.49824   -5.96951   -0.72699
N      0.95454   -4.84900    1.37562
O      0.87367   -6.57166    2.87134
F     -2.70400   -4.83866    6.08944
S      0.72788   -4.60475   -1.69952
H     -0.21664   -0.44490    2.04251
H     -0.42817   -0.05041   -0.41783
H     -4.06001   -4.06316    1.85436
H     -1.83286   -4.66071    0.95463
H      0.45879   -2.68800    2.86957
H     -4.47270   -4.12232    4.32845
H      0.04915   -1.88448   -2.00810
H     -0.45197   -5.50634    4.95544
H      2.40062   -6.33072    1.19932
H      2.84370   -4.76517    0.47937
H      2.30706   -6.37189   -1.34298
H      0.75249   -6.75164   -0.56913
