25

C      2.03441   -0.86170   -0.00579
C      0.85260   -0.43847    0.61047
C      4.93046   -3.79384    4.53819
C      3.04028   -1.45424    0.75399
C      0.68681   -0.60619    1.98623
C      3.81158   -3.22513    3.92615
C      6.20748   -3.44934    4.09983
C      2.88712   -1.66957    2.13543
C      1.69185   -1.23022    2.72414
C      4.00367   -2.31062    2.88182
C      6.28068   -2.54399    3.03546
C      0.54002   -1.99899    4.66384
N      5.24087   -1.99323    2.44331
O      1.58021   -1.32034    4.13004
F      0.36001   -3.21435    4.09118
F     -0.64043   -1.34130    4.56170
F      0.79504   -2.18040    5.96676
Cl     7.87042   -2.09398    2.42151
H      2.17487   -0.72085   -1.07371
H      0.06739    0.03793    0.03031
H      4.80673   -4.50679    5.34880
H      3.97181   -1.76402    0.29229
H     -0.20525   -0.24528    2.48476
H      2.81651   -3.50999    4.23874
H      7.10503   -3.86240    4.54633
