40

C      1.25891   -0.29721    1.78514
C      0.99488   -1.18496    0.71942
C      0.68304   -0.48756    3.03950
C      0.15040   -2.28302    0.88629
C     -1.36756   -4.23374    9.99155
C     -0.17488   -1.58485    3.23664
C     -0.92425   -2.08759    4.35894
C     -0.42562   -2.47120    2.14663
C     -1.56732   -4.09330    8.58875
C     -1.58771   -3.21576    3.93990
C     -1.86818   -5.47411   10.27755
C     -1.06673   -2.91497    7.79840
C     -1.00753   -1.57223    5.76850
C     -2.49726   -4.03883    4.79560
C     -0.84450   -6.26661   12.51613
C     -2.14171   -5.58248   12.84677
C     -2.85551   -3.19396    6.02981
C     -1.98348   -6.27801   11.50249
N     -2.13466   -5.16386    8.06206
N     -1.28907   -3.45636    2.60546
N     -1.65667   -2.58605    6.61422
O     -0.11043   -2.29062    8.27087
O     -2.32932   -6.04422    9.13303
H      1.92400    0.54640    1.62061
H      1.45880   -1.01146   -0.24789
H      0.89594    0.20160    3.85318
H     -0.04828   -2.96582    0.06345
H     -0.90106   -3.51490   10.64841
H     -0.02035   -1.37434    6.18790
H     -1.57756   -0.63271    5.82199
H     -3.41737   -4.30848    4.26161
H     -2.01871   -4.97105    5.11893
H      0.01595   -5.64965   12.27682
H     -0.61156   -7.20620   13.00772
H     -2.80590   -6.04794   13.56850
H     -2.16714   -4.49719   12.83868
H     -3.51911   -2.37479    5.72602
H     -3.37040   -3.79624    6.77192
H     -2.50978   -7.21695   11.36390
H     -1.64885   -4.22387    2.05657
