20

C      1.99482   -0.73382    0.06981
C      0.87214   -0.31476    0.77960
C      7.26572    0.02978    1.27708
C      8.05656   -0.73993    0.45279
C      3.15378   -1.17572    0.72682
C      0.90143   -0.36293    2.17029
C      3.14594   -1.23021    2.12433
C      2.02648   -0.82750    2.85070
C      5.67200   -1.13332    0.28860
C      4.32170   -1.59009   -0.11302
N      5.92231   -0.20052    1.17689
O      4.16289   -2.23368   -1.14561
F     -0.16692    0.02598    2.88860
F      4.18201   -1.73375    2.81301
F      2.02635   -0.90532    4.19023
S      7.08761   -1.79294   -0.50457
H      1.99475   -0.71623   -1.01497
H     -0.02156    0.04432    0.27993
H      7.63240    0.77690    1.97248
H      9.13605   -0.73477    0.37030
