36

C      2.63668   -7.80260    3.36710
C      4.07506   -6.27865    3.38872
C      3.22497   -3.87920    1.65009
C      3.00049   -3.08209    3.80972
C      0.47471   -3.55562   -0.10536
C      0.84647   -2.08268   -0.34737
C      0.14212   -8.08426    3.89274
C      0.29336   -8.20969    2.40647
C      0.72533   -3.72640    1.39673
C      2.10755   -1.86786    0.51681
C      1.43869   -8.64297    3.31932
C      2.03038   -2.91981    1.66391
C      4.68342   -4.89892    3.40102
N      2.71530   -6.49544    3.34716
N      4.80799   -7.36330    3.43355
N      2.11971   -2.38092    3.02129
N      3.73546   -3.91158    2.93159
O      3.63738   -4.52056    0.69882
O      3.16542   -3.01223    5.01520
O      3.84112   -8.40011    3.42481
H     -0.55481   -3.79358   -0.39010
H      1.14560   -4.21191   -0.66895
H      1.02035   -1.85157   -1.40191
H      0.03202   -1.43522   -0.00011
H      0.20136   -7.09185    4.32704
H     -0.50083   -8.78695    4.41329
H     -0.23979   -9.00152    1.88971
H      0.45541   -7.30405    1.83159
H     -0.08619   -3.25788    1.96803
H      0.81212   -4.76280    1.73232
H      3.00683   -2.05202   -0.07664
H      2.18295   -0.85993    0.93132
H      1.62980   -9.70545    3.42088
H      4.95648   -4.62023    4.42160
H      5.57946   -4.88749    2.77750
H      1.32667   -1.94930    3.47872
