29

C      1.77623   -7.18230    2.28803
C      2.71554   -6.64374    1.40333
C      0.57190   -6.51282    2.52309
C      2.45538   -5.43388    0.74970
C      0.28272   -5.30453    1.87636
C      1.24834   -4.80132    1.00169
C     -0.58435   -2.73630    3.65935
C     -0.25117   -1.36124    5.48867
C     -0.34611   -2.83710    5.91442
C     -1.96876   -4.66688    0.86590
C     -1.04229   -4.59937    2.08386
N     -0.16538   -1.51742    4.02565
N     -0.82168   -3.16375    2.43701
O     -0.77098   -3.54091    4.69119
F      0.98680   -3.61023    0.36933
H      1.98019   -8.12097    2.79381
H      3.65214   -7.16090    1.21808
H     -0.15713   -6.93497    3.21075
H      3.16373   -4.99078    0.05670
H     -1.13743   -0.78324    5.76547
H      0.64249   -0.87405    5.88066
H      0.61585   -3.26259    6.20260
H     -1.09801   -3.03683    6.67501
H     -1.51085   -4.19936   -0.00989
H     -2.16004   -5.71449    0.62356
H     -2.92370   -4.17738    1.07710
H     -1.54649   -5.04594    2.94125
H     -0.10127   -0.73611    3.38348
H     -0.57986   -2.54860    1.66557
