29

C      1.23283    5.49444    3.64975
C     -0.02276    6.00256    3.30284
C      1.69721    4.31443    3.06172
C     -0.81968    5.33367    2.36678
C      0.92351    3.62923    2.11633
C     -0.32437    4.17044    1.79920
C      0.32515    0.47224    2.56625
C     -0.31143   -1.27083    3.94635
C      0.84640   -0.46793    4.56539
C      1.79762    2.58967   -0.04052
C      1.44108    2.37911    1.43422
N     -0.67138   -0.38550    2.82438
N      0.43644    1.27641    1.52988
O      1.27097    0.44498    3.48906
F     -1.10207    3.50375    0.88396
H      1.84928    6.01509    4.37601
H     -0.38688    6.91896    3.75738
H      2.67475    3.92255    3.33271
H     -1.79806    5.70318    2.07594
H      0.00266   -2.25238    3.58023
H     -1.14954   -1.38631    4.63474
H      0.53437    0.15801    5.40223
H      1.71321   -1.06722    4.83602
H      0.92778    2.91219   -0.61900
H      2.19995    1.67133   -0.47746
H      2.55614    3.37204   -0.11370
H      2.32437    2.02841    1.96860
H     -1.40877   -0.59552    2.16174
H     -0.35115    1.33635    0.89104
