21   
Generated by ForceBalance from scan.xyz: Frame 1 of 24
C        5.2868646086    2.2634930425    2.1735843303
C        6.1992449532    1.2622071147    1.9392379466
C        4.3698870758    0.9552750407    0.7470850505
C        3.7297929044   -0.6388217759   -1.0110378608
C        1.5459381164   -0.1173547525   -2.0794948605
C        2.9250898926   -2.0567064562   -2.8187612891
N        4.1382429239    2.0656723127    1.4214606309
N        5.5898327447    0.4184597993    1.0163994822
N        3.4408636171    0.3927416701   -0.1303986586
N        2.8051781040   -0.8479177646   -2.0082630271
O        4.7665895140   -1.3096809222   -0.8994516721
H        5.3832278038    3.1146316905    2.8346231474
H        7.1893536732    1.0685456527    2.3250584207
H        1.7118231889    0.9650695936   -2.1141154402
H        0.8715003683   -0.3532463965   -1.2441410225
H        1.0381664002   -0.3899488961   -3.0061023034
H        2.1730172748   -2.8037321596   -2.5315905522
H        3.9175728763   -2.4787122335   -2.6730919846
H        2.7902417233   -1.8088181262   -3.8768437684
H        5.9303512491   -0.4256049959    0.5666253270
H        2.6131811417    0.9631760184   -0.2344612310
21   
Generated by ForceBalance from scan.xyz: Frame 2 of 24
C        5.6783083768    0.8417019246    3.0340694613
C        6.3382408754    1.1455901144    1.8671157570
C        4.9229133900   -0.5177170794    1.5623227170
C        4.0151752347   -1.6179363833   -0.4267705770
C        1.9181851741   -2.8609174022    0.0789350682
C        2.7283142187   -2.5757740853   -2.2572653965
N        4.7895214734   -0.2055463012    2.8368196870
N        5.8449161569    0.2505594039    0.9231275644
N        4.2127055521   -1.5569797173    0.9504036012
N        2.8586575042   -2.2344319540   -0.8427121129
O        4.8326333225   -1.1154152882   -1.2103317294
H        5.7852690453    1.3094175244    4.0038508575
H        7.0833719187    1.8871194732    1.6189029886
H        2.3255898467   -3.7656145572    0.5522540809
H        1.0262718294   -3.1496863594   -0.4798946031
H        1.5946241414   -2.1608239201    0.8561388680
H        2.8533717245   -3.6549181055   -2.4175520514
H        3.4921054030   -2.0407238132   -2.8181803374
H        1.7393305608   -2.2773850923   -2.6206716633
H        6.0475695585    0.1598842582   -0.0673733075
H        3.5226624113   -1.9455717719    1.5796502897
21   
Generated by ForceBalance from scan.xyz: Frame 3 of 24
C        5.5345345685    0.8310909679    2.9984291839
C        6.2083292078    1.1738949666    1.8507171598
C        4.9836546756   -0.6335688898    1.5367072058
C        4.1398024244   -1.7446333535   -0.4583599726
C        1.9384249349   -2.7705291180    0.1065795922
C        2.6891603172   -2.5230326330   -2.2524143833
N        4.7648535754   -0.3066786724    2.7947961910
N        5.8511475389    0.2086129295    0.9138489219
N        4.4167514196   -1.7556858925    0.9149638026
N        2.9167988373   -2.2403782524   -0.8368841490
O        4.9508794895   -1.2606131701   -1.2575266394
H        5.5520518777    1.3301290729    3.9582854316
H        6.8848976871    1.9814171000    1.6122529535
H        2.2252087164   -3.7518813980    0.5107844162
H        0.9868915037   -2.8913586689   -0.4149161549
H        1.7658371690   -2.0742352591    0.9324634532
H        2.6417192657   -3.6046370669   -2.4341743265
H        3.5065886652   -2.0962694909   -2.8303964519
H        1.7460003183   -2.0695553024   -2.5756876707
H        6.1043613157    0.1213168277   -0.0650061982
H        3.7500148849   -2.1939648363    1.5381549229
21   
Generated by ForceBalance from scan.xyz: Frame 4 of 24
C        5.3320751313    0.8176251067    2.9630657244
C        6.0175940258    1.2100268652    1.8388854024
C        5.0215750284   -0.7337949184    1.5187551777
C        4.2684464220   -1.8749318971   -0.4759249713
C        1.9957339044   -2.6543221240    0.2027909295
C        2.6513151339   -2.4876418097   -2.1920671811
N        4.7040476031   -0.4043612487    2.7544034279
N        5.8181198084    0.1887411531    0.9137223375
N        4.6244698971   -1.9250380744    0.8897018928
N        2.9921627916   -2.2620625606   -0.7893052470
O        5.0672003625   -1.4293206716   -1.3056878319
H        5.2460027725    1.3364366299    3.9086192438
H        6.6088032916    2.0844783849    1.6097543543
H        2.1349529593   -3.6848837321    0.5590679227
H        1.0079576908   -2.5935884744   -0.2594743694
H        1.9975577605   -1.9711129496    1.0557236940
H        2.4061157215   -3.5428448041   -2.3663666917
H        3.5021453882   -2.2058511307   -2.8095488361
H        1.7877285124   -1.8742953501   -2.4725422626
H        6.1373771239    0.1123838807   -0.0460911897
H        4.0014906328   -2.4311173768    1.5085548729
21   
Generated by ForceBalance from scan.xyz: Frame 5 of 24
C        5.0930100393    0.7563034832    2.9003805018
C        5.8177538137    1.1988760739    1.8206416602
C        5.0502315558   -0.8444199100    1.4743347268
C        4.4018798737   -1.9985356214   -0.5269747611
C        2.0947533459   -2.5070781740    0.2866320029
C        2.6286726873   -2.4266484083   -2.1429538615
N        4.6057598494   -0.5258026764    2.6732802287
N        5.7920769762    0.1473697883    0.9079195942
N        4.8305980390   -2.0751360242    0.8320063436
N        3.0821321634   -2.2674260182   -0.7635231350
O        5.1904877289   -1.6238988957   -1.3958340176
H        4.8847958764    1.2785878840    3.8247653060
H        6.3334831402    2.1254440667    1.6152163182
H        2.0645291158   -3.5596857880    0.6010258114
H        1.1077870906   -2.2477057505   -0.1045436842
H        2.2795787268   -1.8721930728    1.1554232020
H        2.1850664128   -3.4192930238   -2.2863999559
H        3.4803847092   -2.3076043535   -2.8102102227
H        1.8769959838   -1.6666467504   -2.3859185912
H        6.2027847134    0.0933002288   -0.0173817552
H        4.2475536991   -2.6477355796    1.4337584557
21   
Generated by ForceBalance from scan.xyz: Frame 6 of 24
C        5.8467569044    0.4767890750    2.6264121754
C        5.1175267832    1.0911748540    1.6410796060
C        4.9479952315   -1.1187474523    1.5040166669
C        4.3979971909   -2.5871473002   -0.3464139224
C        1.9716348769   -2.0447017003   -0.0430680597
C        2.9435349814   -2.4440650257   -2.2868865553
N        5.7378663168   -0.9046363472    2.5339487131
N        4.5249026833    0.0476366247    0.9252496488
N        4.5120793435   -2.3883220073    1.0784857346
N        3.1659240340   -2.2690795588   -0.8543842547
O        5.3147075898   -3.0528393483   -1.0122975402
H        6.4482108464    0.9393331337    3.3977877944
H        4.9605227296    2.1271816670    1.3789929755
H        1.2369479884   -2.8367188312   -0.2356655108
H        1.5085237309   -1.0834850867   -0.2969804349
H        2.2295665313   -2.0533528711    1.0133631386
H        2.4435697583   -3.3998640944   -2.4896615619
H        3.9008090887   -2.4342750236   -2.8056650685
H        2.3107298422   -1.6324486286   -2.6604926982
H        3.9707319921    0.1296994094    0.0834991352
H        5.1934264287   -3.0611039818    1.4266379929
21   
Generated by ForceBalance from scan.xyz: Frame 7 of 24
C        5.7828785411    0.4353429534    2.6198818402
C        5.0901342216    1.0265292582    1.5945061826
C        4.9823011996   -1.1861131131    1.4616066811
C        4.4170153307   -2.7006484218   -0.3743068685
C        2.0529158661   -1.9818475008   -0.0151174068
C        2.9522778903   -2.4109236438   -2.2792366932
N        5.7096051535   -0.9483387473    2.5324141844
N        4.5644764815   -0.0344443267    0.8531153253
N        4.6265157536   -2.4738504304    1.0195238490
N        3.2289397435   -2.2002918405   -0.8594927019
O        5.2182020460   -3.3312500150   -1.0539196343
H        6.3317035815    0.9161557632    3.4188235644
H        4.9191249854    2.0569227520    1.3194226527
H        1.3330852567   -2.8000885272   -0.1503704283
H        1.5590062536   -1.0432684973   -0.2898806311
H        2.3387708679   -1.9405451884    1.0332576485
H        2.4848444795   -3.3890995441   -2.4523480639
H        3.8831956122   -2.3700998767   -2.8433206529
H        2.2735955870   -1.6281789745   -2.6307062986
H        4.0496487244    0.0219314603   -0.0157075503
H        5.3331489161   -3.1259896229    1.3525883661
21   
Generated by ForceBalance from scan.xyz: Frame 8 of 24
C        5.6167755906    0.5667115722    2.6991337478
C        4.9885712644    1.1317591156    1.6182821740
C        5.0145048163   -1.0803331391    1.4598550206
C        4.5294152243   -2.6480914141   -0.3878206944
C        2.1921966707   -1.8824140366   -0.0324482129
C        3.0845960485   -2.3084321239   -2.2894066708
N        5.6256349185   -0.8171199860    2.5961810184
N        4.5947119778    0.0543224003    0.8230468954
N        4.8061159826   -2.3807789226    0.9717020918
N        3.3802775285   -2.0471237063   -0.8795107322
O        5.2501415187   -3.3816159759   -1.0546612283
H        6.0617535130    1.0664640715    3.5493675403
H        4.7779350425    2.1542920556    1.3413285591
H        1.5308633771   -2.7546551363   -0.1259681506
H        1.6358608624   -0.9929851356   -0.3449836311
H        2.4725274774   -1.7709902099    1.0123552152
H        2.6378426103   -3.3014457504   -2.4297078663
H        4.0035721029   -2.2610344861   -2.8725614605
H        2.3836999690   -1.5492886165   -2.6478504216
H        4.1565142997    0.0843720020   -0.0887603399
H        5.5389433855   -2.9993775432    1.3077035253
21   
Generated by ForceBalance from scan.xyz: Frame 9 of 24
C        5.4742625359    0.5051593864    2.7445891843
C        4.9195922063    1.0749665224    1.6256438516
C        4.9896052604   -1.1334492117    1.4438351500
C        4.4705482889   -2.7485050465   -0.3847557489
C        2.1953233395   -1.8633174357    0.0106632711
C        3.0101496766   -2.3425299296   -2.2553037003
N        5.5101005137   -0.8761074044    2.6268156200
N        4.6084136244    0.0039284883    0.7890897767
N        4.8676386139   -2.4269299516    0.9192963811
N        3.3639518889   -2.0468013000   -0.8642187605
O        5.0713516237   -3.5943105059   -1.0387213851
H        5.8449822775    1.0004814835    3.6322215928
H        4.7086588039    2.0974699236    1.3486159720
H        1.5345571967   -2.7398831074   -0.0387922619
H        1.6296632525   -0.9848361961   -0.3143787851
H        2.4981336433   -1.7160848470    1.0450834050
H        2.5177450329   -3.3190221739   -2.3516159622
H        3.9098361445   -2.3517483094   -2.8698388237
H        2.3314314316   -1.5636801671   -2.6142149313
H        4.2163366007    0.0319249521   -0.1439744035
H        5.5969711308   -3.0479000737    1.2545338207
21   
Generated by ForceBalance from scan.xyz: Frame 10 of 24
C        5.3852661089    0.4862409065    2.7765889355
C        4.8920529727    1.0656396084    1.6331797025
C        5.0293008380   -1.1353523915    1.4147652983
C        4.4874032167   -2.7992445851   -0.3869056468
C        2.2579403988   -1.8369856834    0.0286749957
C        3.0127672242   -2.3706875860   -2.2375113884
N        5.4623319176   -0.8906293284    2.6356831924
N        4.6730580508    0.0073009492    0.7549425934
N        4.9982936217   -2.4118963770    0.8483928915
N        3.4119288220   -2.0368037864   -0.8660442836
O        4.9867391531   -3.7313456791   -1.0087811908
H        5.6834323184    0.9720931218    3.6961918318
H        4.6699848289    2.0880850489    1.3645585668
H        1.5930893800   -2.7117205138    0.0054738757
H        1.6902428110   -0.9612947148   -0.2998596922
H        2.5777569750   -1.6725651665    1.0558764727
H        2.4946013074   -3.3369522253   -2.2910321015
H        3.8944990605   -2.4202369421   -2.8759972004
H        2.3442321174   -1.5856112887   -2.6021141033
H        4.3129240452    0.0384160171   -0.1910145293
H        5.6999192458   -3.0457770473    1.2136299679
21   
Generated by ForceBalance from scan.xyz: Frame 11 of 24
C        5.3041771316    0.4587169131    2.7994002637
C        4.8619638732    1.0607795939    1.6462766268
C        5.0617992962   -1.1289858101    1.3739691701
C        4.4742713772   -2.8304969162   -0.3912243080
C        2.2916820790   -1.7940955277    0.0473442755
C        2.9783161081   -2.3896571897   -2.2194653203
N        5.4212661684   -0.9112115249    2.6237768845
N        4.7241575568    0.0262800570    0.7258540936
N        5.1041906497   -2.3800911671    0.7605610879
N        3.4239570311   -2.0245298434   -0.8696636902
O        4.8753263122   -3.8351393713   -0.9694223973
H        5.5396304742    0.9236434273    3.7475572493
H        4.6317891294    2.0859409930    1.3952535263
H        1.6124131407   -2.6582060503    0.0519094908
H        1.7311566759   -0.9139060572   -0.2814205673
H        2.6349653638   -1.6191933374    1.0657152701
H        2.4342614820   -3.3429130814   -2.2322037960
H        3.8405615517   -2.4794694117   -2.8802273778
H        2.3210339873   -1.5971489825   -2.5887154898
H        4.3866053542    0.0724500887   -0.2277600245
H        5.7509982780   -3.0411244437    1.1741233594
21   
Generated by ForceBalance from scan.xyz: Frame 12 of 24
C        5.2133872338    0.4058212163    2.8226493642
C        4.8364122178    1.0489755918    1.6678678528
C        5.1008190408   -1.1227134751    1.3184091041
C        4.4713187812   -2.8431954444   -0.4150659385
C        2.3327346358   -1.7416706767    0.0516979893
C        2.9370301313   -2.4144794593   -2.2117941853
N        5.3718876201   -0.9525732111    2.5974124397
N        4.7873352104    0.0545825967    0.6974748708
N        5.2162923891   -2.3373601667    0.6439631379
N        3.4364281296   -2.0115710607   -0.8911651519
O        4.7925440637   -3.9003921872   -0.9460324511
H        5.3752481745    0.8337927499    3.8030702979
H        4.6007899143    2.0797601951    1.4465004611
H        1.6391254453   -2.5933603303    0.0938218915
H        1.7793291981   -0.8586492467   -0.2812492251
H        2.7050647689   -1.5506665140    1.0571402902
H        2.3739399819   -3.3559215909   -2.1743110014
H        3.7740911260   -2.5434489907   -2.8983004499
H        2.2836404196   -1.6206755304   -2.5852633243
H        4.5008835510    0.1352083484   -0.2702462911
H        5.8070501135   -3.0230048835    1.1000763308
21   
Generated by ForceBalance from scan.xyz: Frame 13 of 24
C        5.1049624543    0.3370051871    2.8409450133
C        4.8113444207    1.0340163825    1.6924660794
C        5.1431075910   -1.1129804125    1.2571596816
C        4.4716482680   -2.8510906805   -0.4317807878
C        2.3739974981   -1.6798326929    0.0409526323
C        2.8962142860   -2.4701332319   -2.2009964820
N        5.3064033951   -1.0052553479    2.5606903341
N        4.8655555192    0.0922463834    0.6730532465
N        5.3253954200   -2.2843565812    0.5175377360
N        3.4468436400   -2.0112781665   -0.9190683958
O        4.7242918937   -3.9552640056   -0.8977415414
H        5.1803849515    0.7162804350    3.8514290851
H        4.5778640193    2.0720941825    1.5052802622
H        1.6644822948   -2.5141220966    0.1367190005
H        1.8300252966   -0.7999085306   -0.3150227618
H        2.7745977906   -1.4559991036    1.0285456871
H        2.3175156852   -3.3973013484   -2.0995310469
H        3.7074104636   -2.6478496331   -2.9076598923
H        2.2456399281   -1.6821735603   -2.5914356766
H        4.6441445022    0.2193057340   -0.3064564339
H        5.8842194027   -2.9832512975    0.9960481920
21   
Generated by ForceBalance from scan.xyz: Frame 14 of 24
C        4.5039650915    0.3288153845    2.1289496738
C        4.7988904411    1.6556291688    1.9077694996
C        4.9779590800    0.4697021672    0.0345092779
C        4.4780182732   -0.6274653305   -2.1660203113
C        2.3184768823    0.0611876782   -1.0837620368
C        2.4508404810   -1.8593709871   -2.6342830059
N        4.6272527754   -0.4005098191    0.9617212156
N        5.0955754365    1.7349627761    0.5569196810
N        5.2146276723    0.2393714750   -1.3277529465
N        3.1545991699   -0.8249152871   -1.8853096825
O        5.0634281083   -1.1708015672   -3.1049779145
H        4.2229732634   -0.1442912006    3.0608461191
H        4.8414689062    2.5144062647    2.5622399813
H        1.3666382536    0.2101803571   -1.6056424850
H        2.7824730504    1.0405670434   -0.9658155903
H        2.1211068526   -0.3548797543   -0.0902199424
H        1.7576171346   -2.3773756371   -1.9630375498
H        3.1717756574   -2.5711932910   -3.0324680817
H        1.8808322842   -1.4327337203   -3.4707913599
H        5.3131372941    2.5688274782    0.0271656135
H        6.1869712695    0.2288355027   -1.6184555482
21   
Generated by ForceBalance from scan.xyz: Frame 15 of 24
C        4.4758079167    0.2490860852    2.1383869317
C        4.8200890442    1.5710177460    1.9710610162
C        4.9348050344    0.4625938067    0.0469363647
C        4.4586263703   -0.6980729202   -2.0956278532
C        2.2834384962    0.1127611892   -1.1512472017
C        2.4218428514   -1.9449122427   -2.5169668993
N        4.5574253673   -0.4331242094    0.9381794802
N        5.1049693760    1.6982544820    0.6195123929
N        5.1417423408    0.2836102541   -1.3309369092
N        3.1137890238   -0.8225145804   -1.8968338717
O        5.0954552868   -1.3532292312   -2.9222155884
H        4.1861798777   -0.2533787743    3.0520471650
H        4.9067454081    2.3981694568    2.6608747905
H        1.3310997740    0.2302924804   -1.6796077345
H        2.7557246612    1.0941984656   -1.0985863695
H        2.0856540468   -0.2398081095   -0.1328941727
H        1.8323331116   -2.4784245941   -1.7619801195
H        3.1558183831   -2.6213540476   -2.9508806037
H        1.7465731788   -1.5983187229   -3.3100901424
H        5.3450737770    2.5469298482    0.1243755872
H        6.1188659250    0.2634470864   -1.6101016109
21   
Generated by ForceBalance from scan.xyz: Frame 16 of 24
C        4.4328731355    0.1681846852    2.1384659749
C        4.8948607224    1.4594403786    2.0480187140
C        4.8746125476    0.4738357011    0.0553963280
C        4.4382223795   -0.7241752055   -2.0455419063
C        2.2141402492    0.1064631362   -1.2647925465
C        2.4454299054   -2.0398749604   -2.4710344415
N        4.4309838890   -0.4403294570    0.8941685806
N        5.1671934843    1.6496992802    0.6982470300
N        5.0317665700    0.3665513139   -1.3385700017
N        3.0812865280   -0.8310090513   -1.9630270192
O        5.1499412822   -1.4426180217   -2.7469312476
H        4.1147007546   -0.3657663804    3.0242011199
H        5.0669438069    2.2295468565    2.7859580884
H        1.2756012143    0.1938524685   -1.8224687602
H        2.6743386515    1.0938452611   -1.2232487547
H        1.9946889015   -0.2270771481   -0.2440791553
H        1.9506912683   -2.5787665071   -1.6532141214
H        3.2036190474   -2.6784072447   -2.9204896723
H        1.6949703937   -1.7852532287   -3.2291243998
H        5.4630205356    2.5084509491    0.2534784448
H        6.0082996721    0.3938334522   -1.6239128289
21   
Generated by ForceBalance from scan.xyz: Frame 17 of 24
C        4.4374659791    0.2203009836    2.1267894886
C        5.0897429746    1.4262347388    2.0743071743
C        4.8272565773    0.5685659037    0.0398359154
C        4.3834141047   -0.6799627740   -2.0032933407
C        2.1048967217    0.1112669521   -1.3868178840
C        2.4633624863   -2.0779793504   -2.4826014622
N        4.2823226124   -0.3108274200    0.8542868120
N        5.3330700899    1.6467093825    0.7193137463
N        4.8748263616    0.5148470138   -1.3655160438
N        3.0288812935   -0.8118812290   -2.0318258713
O        5.1729432094   -1.4295437779   -2.5741455060
H        4.0818567173   -0.3086753207    3.0010766194
H        5.4132746485    2.1196577649    2.8368312813
H        1.1809358888    0.1452945096   -1.9730575057
H        2.5322702324    1.1133603193   -1.3596867464
H        1.8724386744   -0.2045158190   -0.3634833044
H        2.0092602294   -2.6151982904   -1.6401783064
H        3.2545731197   -2.6873051179   -2.9154175901
H        1.6923148459   -1.8937466107   -3.2392739247
H        5.7298675789    2.4801584902    0.3066344596
H        5.8310671291    0.6222698231   -1.6997617475
21   
Generated by ForceBalance from scan.xyz: Frame 18 of 24
C        4.4277076695    0.2865626490    2.1627219510
C        5.2611953912    1.3738958050    2.1184695350
C        4.7717450633    0.6562483894    0.0715659980
C        4.3497594688   -0.6333052327   -1.9223992169
C        2.0008720384    0.0600272671   -1.5236336816
C        2.5509594940   -2.1260740307   -2.5461075019
N        4.1264401071   -0.1563403598    0.8817605865
N        5.4787281812    1.6081904934    0.7584616840
N        4.7118714322    0.6467129533   -1.3340933865
N        3.0147056472   -0.8156087624   -2.1024420072
O        5.2273107856   -1.3853030672   -2.3358376133
H        4.0321380140   -0.2157308417    3.0355481829
H        5.7236336199    1.9778047791    2.8853827366
H        1.1189869789    0.0486204547   -2.1716721174
H        2.3803355304    1.0790250348   -1.4639225819
H        1.7183115445   -0.2725642981   -0.5185094055
H        2.1261352248   -2.6904798941   -1.7059931876
H        3.3901993909   -2.6801395797   -2.9625287156
H        1.7784525952   -2.0005197600   -3.3121267383
H        6.0049696988    2.3742103596    0.3603957683
H        5.6339905122    0.8506548586   -1.7170544475
21   
Generated by ForceBalance from scan.xyz: Frame 19 of 24
C        4.5235391000    1.6391499197    2.3176136412
C        5.5561586775    0.7424392787    2.1887866753
C        4.5333897616    1.0547221683    0.2546001677
C        4.1849619027   -0.3894049816   -1.6298308164
C        1.6970290774   -0.1625164216   -1.5834952157
C        2.8041392078   -2.1322612740   -2.6271872186
N        3.8788585516    1.8250756607    1.1000008279
N        5.5590111796    0.3799172878    0.8442183782
N        4.2534227377    0.9409845205   -1.1179994765
N        2.9344021060   -0.8734555662   -1.8976358183
O        5.2139301006   -1.0591219681   -1.7289548180
H        4.1976752743    2.1594263213    3.2085358796
H        6.2671423576    0.3382638558    2.8943748085
H        1.3984149197    0.5314840053   -2.3815598079
H        1.7818724174    0.3810716715   -0.6404478468
H        0.8982062276   -0.8991063047   -1.4662946496
H        2.2852182507   -2.8762279957   -2.0116496964
H        3.7980994843   -2.5044145245   -2.8687760934
H        2.2337628996   -1.9800875269   -3.5514238851
H        6.1635573675   -0.2736044960    0.3592355583
H        3.4486486786    1.5228181616   -1.3271790487
21   
Generated by ForceBalance from scan.xyz: Frame 20 of 24
C        4.7738711589    1.7382920033    2.4035599712
C        5.7660521519    0.8088031546    2.2051747525
C        4.5301999197    1.0448833655    0.3913013297
C        4.0705438391   -0.4239851216   -1.4730116837
C        1.5968926015   -0.1873771094   -1.7224997582
C        2.8211969373   -2.1249986161   -2.6899570514
N        3.9968346690    1.8796127799    1.2601497116
N        5.6044383369    0.3761817215    0.8916227365
N        4.0784838649    0.8793323731   -0.9284057451
N        2.8555138488   -0.9100607396   -1.8789590876
O        5.1114347071   -1.0879909601   -1.4979788684
H        4.5643655501    2.3121281553    3.2965687546
H        6.5479722205    0.4247468295    2.8437615368
H        1.4498798277    0.5802806495   -2.4954511604
H        1.5259767398    0.2730800499   -0.7340065098
H        0.7765190130   -0.9038254840   -1.8055528818
H        2.1741427813   -2.8732105596   -2.2187032631
H        3.8304720037   -2.5253422948   -2.7651298563
H        2.4372056482   -1.9093209460   -3.6949773177
H        6.1224388011   -0.3240811396    0.3717354864
H        3.2397668160    1.4326177194   -1.0611822976
21   
Generated by ForceBalance from scan.xyz: Frame 21 of 24
C        4.9251377749    1.8345646034    2.4170922707
C        5.9039898629    0.9013119197    2.1726870313
C        4.4827100729    1.0136613034    0.4894924822
C        3.9536173549   -0.4962449659   -1.3453768637
C        1.5334198312   -0.2330696278   -1.8852867533
C        2.8584876913   -2.1478569510   -2.7602769593
N        4.0328834022    1.9002577950    1.3550968080
N        5.6110679669    0.3843107375    0.9141608030
N        3.8876404238    0.7736076981   -0.7576857094
N        2.7877049123   -0.9781314653   -1.8872000086
O        5.0060529917   -1.1461731986   -1.3162090349
H        4.8033067883    2.4626805306    3.2896155805
H        6.7510574623    0.5603560877    2.7496846614
H        1.5339242480    0.6031476154   -2.5990386165
H        1.2969664976    0.1431503267   -0.8856934458
H        0.7281593791   -0.9129001764   -2.1705825684
H        2.1209383838   -2.8935537004   -2.4445092327
H        3.8550211174   -2.5791338089   -2.6875823431
H        2.6572786518   -1.8716368813   -3.8035085887
H        6.0713132649   -0.3489222955    0.3846279844
H        3.0244512618    1.2972935236   -0.8328454384
21   
Generated by ForceBalance from scan.xyz: Frame 22 of 24
C        5.0276687450    1.9054611343    2.4200855339
C        5.9949375400    0.9698842524    2.1395385320
C        4.4240966662    0.9679880524    0.5920030207
C        3.8468706433   -0.5674946695   -1.2248705605
C        1.5029152802   -0.2447054415   -1.9997490931
C        2.8946927328   -2.1367012490   -2.8234026688
N        4.0422264137    1.9003997838    1.4431260740
N        5.5952718323    0.3752921061    0.9469245535
N        3.7111005736    0.6545058466   -0.5708469000
N        2.7357016195   -1.0169633097   -1.8985465848
O        4.9062811134   -1.2070156999   -1.1664908860
H        4.9767375120    2.5824762072    3.2625452506
H        6.8980621768    0.6736993927    2.6526959260
H        1.6145336111    0.6545521549   -2.6221352134
H        1.1302882258    0.0437182224   -1.0114035697
H        0.7370310738   -0.8737362364   -2.4568429727
H        2.0945173488   -2.8667585690   -2.6623077595
H        3.8556389792   -2.6117599893   -2.6358409348
H        2.8585392120   -1.7966646662   -3.8669205725
H        6.0131204904   -0.3825703378    0.4163994222
H        2.8308119141    1.1516010041   -0.6034177232
21   
Generated by ForceBalance from scan.xyz: Frame 23 of 24
C        5.0928809889    2.0051481802    2.4360071205
C        6.0446780666    1.0562398373    2.1468812545
C        4.3636358391    0.9450623267    0.7242739393
C        3.7601262879   -0.6098994482   -1.0818523481
C        1.4951546190   -0.2047513768   -2.0261857176
C        2.9277994747   -2.0755407017   -2.8392801484
N        4.0377174976    1.9309218242    1.5386428188
N        5.5611698725    0.3792262408    1.0320585757
N        3.5616770599    0.5503935422   -0.3483247911
N        2.7077763142   -0.9993920033   -1.8773588193
O        4.8206097120   -1.2478155165   -1.0038142243
H        5.0993392237    2.7373951024    3.2325348080
H        6.9888855344    0.8022066034    2.6058191096
H        1.6750263952    0.7495545132   -2.5410591903
H        1.0226329491   -0.0078699574   -1.0574197698
H        0.7772958978   -0.7740573504   -2.6188886226
H        2.1032981574   -2.7946048882   -2.7881985497
H        3.8595602813   -2.5805482778   -2.5920298259
H        2.9934061459   -1.6846350483   -3.8633790025
H        5.9472573377   -0.4052296917    0.5160256815
H        2.6859754601    1.0536597185   -0.3831927029
21   
Generated by ForceBalance from scan.xyz: Frame 24 of 24
C        5.1669064852    2.0737536075    2.3355764221
C        6.0946433506    1.0943546945    2.0708870451
C        4.3226237273    0.8704658220    0.7783602526
C        3.6995884232   -0.7035642111   -1.0093521304
C        1.4992938415   -0.2136114984   -2.0565540691
C        2.9637815157   -2.0503683763   -2.9007852851
N        4.0542760121    1.9285578000    1.5203204515
N        5.5337063112    0.3201820311    1.0604881285
N        3.4425501571    0.3806461867   -0.1865633463
N        2.6983525133   -1.0258693692   -1.8956524629
O        4.7615096583   -1.3394142824   -0.9283306919
H        5.2280249047    2.8738944468    3.0613365180
H        7.0677623931    0.8758973529    2.4856070606
H        1.7168958320    0.7840643626   -2.4632401458
H        0.9561191468   -0.1062036860   -1.1106469695
H        0.8281802193   -0.7177554471   -2.7535677093
H        2.1249775019   -2.7530281657   -2.9480471414
H        3.8674190096   -2.5886738647   -2.6213136820
H        3.1077992852   -1.6038335993   -3.8935890136
H        5.8950059720   -0.4928738491    0.5714367101
H        2.6014365715    0.9337753729   -0.2718528143
