47

C      2.50239    2.62583   -3.58668
C      2.03110    1.98195   -2.44363
C     -0.05323    1.37932   -3.58280
C      1.67526    2.64558   -4.70956
C      0.42454    2.03674   -4.71077
C      0.76518    1.37256   -2.44798
C      1.90562    3.25945   -6.03850
C      1.04882   -0.28085   -0.62170
C     -0.88693    1.00043   -0.57415
C     -0.19304    2.25120   -6.06661
C      0.22376   -0.72640    0.58651
C      1.03434   -0.52034    1.87376
C     -0.17538   -2.20000    0.40234
C     -3.12112    1.36581    3.42932
C     -1.89342    1.30480    2.51524
C     -3.00187    2.45362    4.50226
C     -2.02339    0.19144    1.46913
C     -4.23784    2.54076    5.38637
N      0.31838    0.71486   -1.26264
N     -0.93483    0.17276    0.49600
O      2.85629    3.87973   -6.45325
O      2.13051   -0.72250   -0.95892
O      0.78836    3.00612   -6.80919
O     -4.01320    3.56339    6.36365
S     -2.00607    2.14694   -1.01151
H      3.47689    3.10428   -3.60772
H      2.63572    1.94027   -1.54431
H     -1.02528    0.89960   -3.55953
H     -0.38600    1.31714   -6.60407
H     -1.11745    2.83603   -6.02442
H      0.46371   -0.85550    2.74454
H      1.29483    0.53267    2.00992
H      1.95587   -1.10474    1.81428
H     -0.74691   -2.55656    1.26400
H      0.72688   -2.80922    0.30839
H     -0.78240   -2.32949   -0.49810
H     -4.01339    1.54916    2.81598
H     -3.27197    0.38947    3.91156
H     -0.98963    1.14646    3.11431
H     -1.77332    2.25921    1.99375
H     -2.13042    2.26102    5.13969
H     -2.83994    3.42977    4.03025
H     -2.04960   -0.78895    1.95352
H     -2.95867    0.31263    0.91550
H     -4.41887    1.57056    5.87501
H     -5.12036    2.77663    4.77214
H     -4.80902    3.64177    6.91173
