52

C     -2.56468   -0.80967   -1.14338
C     -1.57404    0.20791   -0.87248
C     -0.54332   -0.27484   -0.10858
C     -3.79659   -0.67412   -1.89739
C     -2.25141   -2.02921   -0.57732
C     -4.25998   -3.08748   -1.39177
C      2.54225   -1.12590   -0.29841
C     -6.04186   -2.88658   -3.87989
C      3.15513   -0.32672   -2.41169
C      1.89000    0.40953   -1.93385
C     -1.41272   -6.63776   -0.25072
C     -2.29778   -6.01119   -2.03060
C     -5.59692   -1.52902   -4.36919
C     -1.72382   -5.23610   -0.82086
C     -5.71692   -1.80539   -2.88308
C     -1.68197    1.61351   -1.39899
C     -4.24954   -1.37468   -5.04267
C      0.72691    0.40292    0.32970
C     -2.69813   -4.39882   -0.00089
N     -4.51546   -1.89064   -2.07188
N     -3.05953   -3.13767   -0.66830
N      3.18341   -1.45965   -1.48589
N      1.87825    0.07975   -0.51024
O     -4.22230    0.37147   -2.37938
O     -5.01486   -4.05131   -1.42566
O      2.53860   -1.77776    0.74066
O     -1.92954   -7.28861   -1.43860
S     -0.74888   -1.98600    0.29155
H     -7.08266   -3.18501   -3.95867
H     -5.33643   -3.70518   -3.97170
H      3.07604   -0.65545   -3.45073
H      4.04177    0.31279   -2.30465
H      1.94704    1.48962   -2.09483
H      0.99214    0.02355   -2.43677
H     -0.35331   -6.86495   -0.08762
H     -1.98635   -6.91513    0.64393
H     -3.38004   -5.92387   -2.16827
H     -1.78351   -5.85052   -2.98491
H     -6.37021   -0.86697   -4.75158
H     -0.82694   -4.65892   -1.05745
H     -6.54493   -1.33200   -2.36398
H     -2.59371    2.09438   -1.03498
H     -0.82225    2.22041   -1.10743
H     -1.75400    1.61080   -2.49040
H     -3.49760   -2.02719   -4.58664
H     -3.89267   -0.34376   -4.96928
H     -4.32014   -1.64566   -6.10196
H      0.58733    1.48645    0.32534
H      0.99455    0.11138    1.34764
H     -2.26486   -4.15068    0.97405
H     -3.62492   -4.94666    0.16944
H      4.00971   -2.03825   -1.39899
