29   
Generated by ForceBalance from scan.xyz: Frame 1 of 24
C       -0.4303829615   -0.7934724100    2.6989242678
C       -1.3824354359   -1.2999280631    3.5526012510
C       -0.8327957222   -0.3586113835    1.4118651755
C       -2.7062060714   -1.3437005579    3.0681556780
C       -0.3591331573    0.9631131151   -0.7756917347
C        0.2746003225   -0.3901931695   -0.9733827632
C        0.1609163385    0.2036770575    0.4334379056
C       -0.6427006433   -1.6041264299   -2.9822312083
C       -5.0014428176   -1.8756370043    3.3892343255
C       -0.5287178702   -1.5821225253   -1.4516891368
N       -2.1127973873   -0.4259299158    1.0349460671
N       -3.0485673659   -0.9230360273    1.8572103203
N        1.4237733144    0.6940515402    0.9515604298
O       -3.6549578520   -1.8380760949    3.8965216014
H        0.6076412541   -0.7307133196    3.0088565532
H       -1.1542632301   -1.6532311609    4.5535764195
H        0.2071361447    1.8452134015   -1.0560183133
H       -1.4375699219    1.0247379517   -0.8752409777
H        1.3008123179   -0.3617998231   -1.3355379075
H       -1.1443911845   -0.7011750881   -3.3468052576
H       -1.2185376824   -2.4714852791   -3.3228529868
H        0.3446576580   -1.6502929744   -3.4564989824
H       -5.5964786311   -2.3008952040    4.1980928690
H       -5.0616378232   -2.5020584538    2.4954347189
H       -5.3503107771   -0.8699857420    3.1407677002
H       -0.0483782027   -2.5070499000   -1.1048597523
H       -1.5279995876   -1.5590457408   -1.0103137985
H        1.9912622370   -0.0597601914    1.3341365991
H        1.2767963235    1.3859360688    1.6849634661
29   
Generated by ForceBalance from scan.xyz: Frame 2 of 24
C       -0.8849689125    0.0716434378    2.7059512621
C       -1.5416057232   -0.6597805824    3.6689193933
C       -1.0506083833   -0.2896554399    1.3460358637
C       -2.3438179941   -1.7265715741    3.2165809681
C       -1.0936581547    0.5469527116   -1.1103439310
C        0.2143067471   -0.1922109085   -0.9816929006
C       -0.3958144263    0.4948984962    0.2421248252
C        0.4746706101   -2.0585685507   -2.6505921088
C       -3.8104367645   -3.5419942896    3.6728094476
C        0.3197708447   -1.6920123101   -1.1679752910
N       -1.8522332201   -1.3027055385    1.0018787383
N       -2.4892657957   -2.0270321416    1.9319416012
N        0.2870842535    1.7244498283    0.5967170247
O       -2.9920081979   -2.4592138656    4.1515662037
H       -0.2515785723    0.9055914853    2.9889328381
H       -1.4656255846   -0.4443209756    4.7303648295
H       -1.0999056395    1.5128650619   -1.6051705861
H       -1.9923578133   -0.0541715796   -1.2035715091
H        1.0762804318    0.3638600996   -1.3456191209
H       -0.3914384924   -1.7166681218   -3.2278227038
H        0.5604892127   -3.1427338045   -2.7816927895
H        1.3681448152   -1.5967133005   -3.0871629380
H       -4.2329758941   -3.9951715027    4.5701827876
H       -3.2084318805   -4.2684737170    3.1207602587
H       -4.6030444570   -3.1692518482    3.0188415993
H        1.1855321668   -2.0652517916   -0.6044656736
H       -0.5628076377   -2.1832539287   -0.7541821026
H        1.0903236569    1.5461888881    1.1968880247
H       -0.3365741301    2.3687200106    1.0805094133
29   
Generated by ForceBalance from scan.xyz: Frame 3 of 24
C       -1.0269145520    0.1724368605    2.7277974720
C       -1.7300409908   -0.5241646778    3.6836188509
C       -1.0001137954   -0.3277340378    1.4018129240
C       -2.3837452613   -1.6979686312    3.2586285312
C       -1.0540132457    0.5596313904   -1.0331565968
C        0.2264280807   -0.2360841745   -0.9681221829
C       -0.3161826172    0.4305359307    0.2958214579
C        0.4295316638   -2.0040192710   -2.7432801062
C       -3.7388357826   -3.5925130980    3.7363942817
C        0.2824348091   -1.7260582618   -1.2406706004
N       -1.6758718190   -1.4343683745    1.0783738137
N       -2.3561711443   -2.1258953329    2.0026426647
N        0.4274166704    1.6236688625    0.6571876257
O       -3.0716377368   -2.4001236704    4.1884711823
H       -0.4992482782    1.0822032824    2.9929914828
H       -1.7970695448   -0.2044882118    4.7191002493
H       -1.0414323219    1.5404077035   -1.4984388714
H       -1.9784327375   -0.0038340620   -1.1155338821
H        1.0951125553    0.3085312681   -1.3328922923
H       -0.4238609184   -1.6000064166   -3.2993100873
H        0.4810443671   -3.0802090971   -2.9412743055
H        1.3382474154   -1.5450085906   -3.1506951772
H       -4.2221729255   -4.0001042949    4.6248952337
H       -3.0204653631   -4.3070100953    3.3260815909
H       -4.4798052404   -3.3549084551    2.9686900610
H        1.1363903828   -2.1580410206   -0.7018187420
H       -0.6115176185   -2.2140034781   -0.8514676374
H        1.1975657682    1.4039756174    1.2867019084
H       -0.1696059117    2.3127040745    1.1114018723
29   
Generated by ForceBalance from scan.xyz: Frame 4 of 24
C       -1.2129218074    0.2646106566    2.6863353587
C       -1.9580939730   -0.4066670211    3.6268387832
C       -0.9790196624   -0.3542794876    1.4313730793
C       -2.4411616749   -1.6797308740    3.2601816180
C       -0.9655021376    0.6085360660   -0.9777373343
C        0.2527411107   -0.2830719488   -0.9496671879
C       -0.2349548050    0.3716111033    0.3413446978
C        0.3994745478   -1.9380070015   -2.8314104080
C       -3.6526254461   -3.6559689558    3.7895069728
C        0.2019540890   -1.7529025432   -1.3202278537
N       -1.4975314493   -1.5526616436    1.1572833650
N       -2.2213259225   -2.2197237174    2.0688913652
N        0.5947232445    1.4971555590    0.7387997315
O       -3.1645551854   -2.3592701318    4.1795500201
H       -0.8104679454    1.2472677548    2.9079376838
H       -2.1813450179    0.0018478596    4.6077506344
H       -0.8881626651    1.6025203672   -1.4084984827
H       -1.9288394333    0.1169897421   -1.0796127758
H        1.1573708750    0.2174858096   -1.2885651882
H       -0.3909033992   -1.4281257317   -3.3940213347
H        0.3752866874   -2.9987988564   -3.1039321232
H        1.3604645519   -1.5289891169   -3.1657689851
H       -4.1957663582   -4.0269379345    4.6592896696
H       -2.8235497588   -4.3228533743    3.5389966607
H       -4.3166155310   -3.5763104338    2.9248729459
H        0.9905193243   -2.2898756328   -0.7771054628
H       -0.7415875154   -2.1935348006   -1.0005884725
H        1.2858358467    1.2180094156    1.4330773837
H        0.0372469010    2.2536639025    1.1307019893
29   
Generated by ForceBalance from scan.xyz: Frame 5 of 24
C       -1.4460306789    0.3577047445    2.5717848845
C       -2.1994793633   -0.2971077284    3.5149815871
C       -0.9936263182   -0.3640782581    1.4358109481
C       -2.4633019749   -1.6629712775    3.2726492716
C       -0.8616860770    0.6815405946   -0.9468106587
C        0.2615083194   -0.3276287422   -0.9253441916
C       -0.1829253762    0.3333381175    0.3745829402
C        0.2897039971   -1.9022168348   -2.8774676774
C       -3.4648291385   -3.7149779857    3.9348399324
C        0.0540514141   -1.7647109374   -1.3667652032
N       -1.2901374102   -1.6531971772    1.2824791659
N       -2.0281132766   -2.3049914097    2.1982234993
N        0.7459522996    1.3575882950    0.8285459282
O       -3.1981064254   -2.3244983080    4.1955361292
H       -1.2091759539    1.4101229026    2.6927616312
H       -2.5862542664    0.1854997323    4.4073912151
H       -0.6822437121    1.6763909151   -1.3445469236
H       -1.8661274079    0.2915227838   -1.0884386332
H        1.2176106754    0.0868774488   -1.2380674305
H       -0.4054531314   -1.2702937807   -3.4423303582
H        0.1456897202   -2.9375486877   -3.2053902187
H        1.3077260683   -1.6031295981   -3.1544800839
H       -4.0605643759   -4.0523966400    4.7835655810
H       -2.5329224166   -4.2820817734    3.8670177347
H       -4.0205509375   -3.8341812699    3.0011714162
H        0.7423709990   -2.4201800291   -0.8202954820
H       -0.9484708934   -2.1042480407   -1.1061011856
H        1.3760882330    0.9837701690    1.5364934447
H        0.2586675862    2.1551490842    1.2320771998
29   
Generated by ForceBalance from scan.xyz: Frame 6 of 24
C       -1.7011559384    0.4379416516    2.3224058839
C       -2.4721848035   -0.1965447676    3.2639361606
C       -1.0080241131   -0.3467553633    1.3634330126
C       -2.5011579798   -1.6083976027    3.2001796932
C       -0.6659354454    0.7974074072   -0.9638747278
C        0.3330447153   -0.3354270384   -0.9238260357
C       -0.1002536992    0.3307726356    0.3707691033
C        0.1425059479   -1.8373008506   -2.9278928162
C       -3.2839399190   -3.6882347401    4.0450721688
C       -0.0512781721   -1.7205297486   -1.4097466260
N       -1.0718533264   -1.6758402800    1.3842377810
N       -1.8305257181   -2.3101842501    2.2983159953
N        0.9086228545    1.2186421472    0.9319290585
O       -3.2565890883   -2.2505511775    4.1194621676
H       -1.6369515703    1.5225399521    2.2958220000
H       -3.0391755166    0.3293685650    4.0260397518
H       -0.3517388453    1.7758787418   -1.3157036761
H       -1.6983096064    0.5324545001   -1.1784531597
H        1.3440475710   -0.0379719370   -1.1945168408
H       -0.4754061661   -1.1058797780   -3.4615856169
H       -0.1326685051   -2.8358670044   -3.2847467446
H        1.1861480388   -1.6577364469   -3.2122740812
H       -3.9415930829   -4.0005302983    4.8568632261
H       -2.2811927431   -4.1019254111    4.1787565615
H       -3.6774059584   -4.0182294486    3.0802179714
H        0.5509593065   -2.4745684443   -0.8922815989
H       -1.0886776466   -1.9402059224   -1.1478993105
H        1.4791457395    0.7119884444    1.6081110110
H        0.4787596190    2.0013043602    1.4228095666
29   
Generated by ForceBalance from scan.xyz: Frame 7 of 24
C       -1.8975245535    0.4196605231    2.1080032024
C       -2.6905666262   -0.2100582971    3.0356318511
C       -0.9912535309   -0.3598624267    1.3457682906
C       -2.5205534493   -1.6081462119    3.1551846672
C       -0.5217237430    0.8849462108   -0.9050073427
C        0.3814355495   -0.3295545707   -0.8946008229
C       -0.0239763590    0.3166046359    0.4128799295
C        0.0000580825   -1.7674059830   -2.9263824233
C       -3.1196827221   -3.6711895098    4.1749754437
C       -0.1324785729   -1.6633888669   -1.4010674406
N       -0.8719098190   -1.6728256221    1.5354581046
N       -1.6485892362   -2.3024933979    2.4362922992
N        1.0317723386    1.0875047152    1.0546421250
O       -3.2964556906   -2.2467451937    4.0595715604
H       -1.9682559018    1.4915873628    1.9399238234
H       -3.4159205364    0.3083938620    3.6552492962
H       -0.1155485073    1.8446818273   -1.2102565386
H       -1.5664382905    0.7184530823   -1.1572745859
H        1.4171862672   -0.1187116999   -1.1526752335
H       -0.5674038416   -0.9742941065   -3.4266777364
H       -0.3724024346   -2.7311177719   -3.2906337541
H        1.0459911553   -1.6739474245   -3.2413382971
H       -3.8305057335   -3.9826015011    4.9409960242
H       -2.0968425896   -3.9112370242    4.4761018957
H       -3.3342796169   -4.1659546745    3.2243332313
H        0.4160904093   -2.4766959475   -0.9151255826
H       -1.1793963647   -1.7961196350   -1.1120326618
H        1.5697659301    0.4764382941    1.6692104489
H        0.6338519466    1.8230448328    1.6384993125
29   
Generated by ForceBalance from scan.xyz: Frame 8 of 24
C       -2.0599672184    0.3444942217    1.8626275529
C       -2.8916629828   -0.2892713526    2.7554799168
C       -0.9786160909   -0.3831197823    1.3118721172
C       -2.5797151045   -1.6342318704    3.0525252394
C       -0.4121472786    0.9452402572   -0.8637678964
C        0.4028653659   -0.3320528736   -0.9013297107
C        0.0352148031    0.2876002222    0.4272085080
C       -0.1174112950   -1.7111765610   -2.9501925572
C       -3.0659272026   -3.6476806787    4.2217912513
C       -0.2172180937   -1.6132572044   -1.4224257228
N       -0.7368309761   -1.6483023799    1.6579375818
N       -1.5448254212   -2.2792808213    2.5261710389
N        1.1324532953    0.9488569280    1.1184769899
O       -3.3899055230   -2.2766910238    3.9234930122
H       -2.2254317486    1.3774162397    1.5671029951
H       -3.7474460428    0.1895893551    3.2215366578
H        0.0679594557    1.8824197728   -1.1279015212
H       -1.4628843366    0.8666532710   -1.1337336655
H        1.4513675824   -0.1945858602   -1.1568772904
H       -0.6272842620   -0.8696221181   -3.4328411880
H       -0.5707001327   -2.6380566994   -3.3182603390
H        0.9277880050   -1.6973308565   -3.2801787988
H       -3.8313715358   -3.9712156864    4.9277993341
H       -2.0714162539   -3.7220390590    4.6689763657
H       -3.0931716687   -4.2578764184    3.3154632522
H        0.2741642118   -2.4721718969   -0.9526981286
H       -1.2686387108   -1.6671607453   -1.1196681620
H        1.6257775164    0.2615812242    1.6888772698
H        0.7690873253    1.6573644514    1.7564570727
29   
Generated by ForceBalance from scan.xyz: Frame 9 of 24
C       -2.1480111215    0.2378730044    1.6722713304
C       -3.0092845251   -0.4122385246    2.5266620728
C       -0.9316504045   -0.3959793867    1.3331892083
C       -2.5888884619   -1.6736583509    2.9991177543
C       -0.3047355238    0.9988155284   -0.7841034582
C        0.4293508917   -0.3243367955   -0.8773342854
C        0.1101848381    0.2688098031    0.4765896229
C       -0.2089530898   -1.6390524929   -2.9400728885
C       -2.9883322434   -3.6173161161    4.3109265396
C       -0.2778740707   -1.5538526464   -1.4101386668
N       -0.5961484663   -1.5862081475    1.8359953392
N       -1.4271518026   -2.2293527173    2.6694676407
N        1.2507249581    0.8290181922    1.1842920775
O       -3.4256918797   -2.3314460898    3.8328284236
H       -2.3882523306    1.2133579762    1.2586201943
H       -3.9646655282   -0.0020289387    2.8394536920
H        0.2330079787    1.9118043949   -1.0190956601
H       -1.3580071015    0.9968749147   -1.0550389231
H        1.4821840304   -0.2478297660   -1.1401759722
H       -0.6730719317   -0.7612048741   -3.4036820271
H       -0.7246893697   -2.5311970297   -3.3116758901
H        0.8297601248   -1.6854191563   -3.2866702342
H       -3.7958734060   -3.9686829288    4.9539431386
H       -2.0572660662   -3.5244947290    4.8757881302
H       -2.8299739041   -4.3068718955    3.4778457286
H        0.1663238395   -2.4492914158   -0.9599119647
H       -1.3267212736   -1.5456621506   -1.0912798851
H        1.6948236265    0.0844516273    1.7226927596
H        0.9316051175    1.5271503803    1.8566712107
29   
Generated by ForceBalance from scan.xyz: Frame 10 of 24
C       -2.2086933192    0.1058608957    1.4890551080
C       -3.0878259597   -0.5592404079    2.3142407993
C       -0.8990865770   -0.4042522541    1.3516867490
C       -2.5932987871   -1.7099910987    2.9622295030
C       -0.2167933551    1.0411164614   -0.7230303575
C        0.4396792255   -0.3170491816   -0.8698764352
C        0.1635383894    0.2474053767    0.5088924126
C       -0.2902325074   -1.5405058976   -2.9600226550
C       -2.9305150893   -3.5539446779    4.4268989177
C       -0.3395178147   -1.4904034880   -1.4277770517
N       -0.5009599859   -1.4941727364    2.0129925148
N       -1.3463074690   -2.1493644334    2.8200391669
N        1.3425296586    0.7176415841    1.2173890032
O       -3.4457105239   -2.3815986548    3.7687731670
H       -2.5064789392    1.0049411279    0.9582415064
H       -4.1110096286   -0.2360490901    2.4799441470
H        0.3735053241    1.9284254793   -0.9272038095
H       -1.2664884107    1.1122950384   -0.9964294270
H        1.4940260062   -0.2940385865   -1.1365872525
H       -0.7090512686   -0.6264068337   -3.3956758701
H       -0.8583529922   -2.3927300570   -3.3484608037
H        0.7410046851   -1.6351379590   -3.3185936252
H       -3.7654715365   -3.9376287058    5.0140089615
H       -2.0889071042   -3.2962386593    5.0749007557
H       -2.6001174708   -4.2954103979    3.6949961987
H        0.0605810614   -2.4212187136   -1.0072856413
H       -1.3837343008   -1.4340534031   -1.0980086458
H        1.7365025595   -0.0690840309    1.7345586331
H        1.0674803506    1.4120522079    1.9127970674
29   
Generated by ForceBalance from scan.xyz: Frame 11 of 24
C       -2.2417156150   -0.0740044456    1.3014939825
C       -3.1287155618   -0.7400907594    2.1167229863
C       -0.8767534502   -0.4357176160    1.3530307634
C       -2.5901655830   -1.7445934007    2.9467959659
C       -0.1417385037    1.0601151698   -0.6802873130
C        0.4427285603   -0.3211422810   -0.8860951494
C        0.2024998557    0.2043781747    0.5205420485
C       -0.3614986420   -1.4039306533   -3.0255139180
C       -2.8876047773   -3.4362251320    4.5923374547
C       -0.3917212793   -1.4308067699   -1.4919239723
N       -0.4435477422   -1.3915679408    2.1794406051
N       -1.2964431785   -2.0476626361    2.9774169464
N        1.4114445116    0.5935197690    1.2259502827
O       -3.4494082222   -2.4148563180    3.7473513624
H       -2.5804140150    0.7194816595    0.6435062782
H       -4.1915571838   -0.5202219705    2.1440319539
H        0.4950249642    1.9222428239   -0.8493065050
H       -1.1843082121    1.2022388932   -0.9508555343
H        1.4975629194   -0.3413197894   -1.1506964078
H       -0.7481463309   -0.4526800672   -3.4079767853
H       -0.9676189620   -2.2118999625   -3.4494269922
H        0.6611077319   -1.5201899247   -3.4017186375
H       -3.7355810583   -3.8451875747    5.1425586810
H       -2.1514308167   -3.0097635679    5.2785195349
H       -2.4053406836   -4.2128463185    3.9932204589
H       -0.0234006938   -2.3983057093   -1.1280048271
H       -1.4293237937   -1.3523046532   -1.1471427938
H        1.7413965207   -0.2155724961    1.7531075728
H        1.1794303273    1.3070176273    1.9178567404
29   
Generated by ForceBalance from scan.xyz: Frame 12 of 24
C       -2.2621677663   -0.2901420287    1.1447429073
C       -3.1593307690   -0.9470633990    1.9542391779
C       -0.8786853802   -0.4921210789    1.3647394183
C       -2.6156843606   -1.7847895374    2.9503069600
C       -0.1088917464    1.0656408202   -0.6135632581
C        0.4223717032   -0.3217370442   -0.8967024018
C        0.2129194408    0.1403603098    0.5423347480
C       -0.4123471488   -1.2421491474   -3.0970607863
C       -2.9183902948   -3.2946000521    4.7623119964
C       -0.4392942651   -1.3710798267   -1.5682238502
N       -0.4463428445   -1.2961442941    2.3395471018
N       -1.3105184401   -1.9439119765    3.1338319149
N        1.4457527657    0.4591355927    1.2396982323
O       -3.4855431160   -2.4433427414    3.7492661153
H       -2.6123749776    0.3803803441    0.3674734525
H       -4.2352742474   -0.8398313421    1.8568836752
H        0.5598539728    1.9105413816   -0.7411254962
H       -1.1468019985    1.2668941412   -0.8626203179
H        1.4765429136   -0.3621001522   -1.1612430271
H       -0.7826135234   -0.2606164498   -3.4132996180
H       -1.0342012134   -2.0089523754   -3.5715981232
H        0.6069795024   -1.3511219955   -3.4839798372
H       -3.7751748382   -3.7234315460    5.2829729510
H       -2.2976163810   -2.7161856194    5.4513629833
H       -2.3080709976   -4.0808535248    4.3105822306
H       -0.0877681383   -2.3680075426   -1.2732844351
H       -1.4744739585   -1.2992581250   -1.2175523866
H        1.7377037701   -0.3713712115    1.7553948399
H        1.2485017797    1.1659815161    1.9492131076
29   
Generated by ForceBalance from scan.xyz: Frame 13 of 24
C       -2.2556075908   -0.5560070835    1.0407662521
C       -3.1542896860   -1.1950995652    1.8603848002
C       -0.8793304469   -0.5942850013    1.3804559223
C       -2.6249962618   -1.8534369179    2.9908596192
C       -0.1112222684    1.0351910496   -0.5326786118
C        0.3926279552   -0.3374131561   -0.9163049541
C        0.2156702827    0.0284956999    0.5563320829
C       -0.4317260815   -1.0859567931   -3.1813737693
C       -2.9465182432   -3.1560167293    4.9537201540
C       -0.4655368828   -1.3348263761   -1.6671413827
N       -0.4630565244   -1.2346889794    2.4756514685
N       -1.3317175935   -1.8631564971    3.2834675016
N        1.4708937374    0.2884088999    1.2371127847
O       -3.4988292371   -2.4915963706    3.8022279910
H       -2.6049007599   -0.0144195388    0.1688759544
H       -4.2237636792   -1.2025296918    1.6741058654
H        0.5676564284    1.8775575358   -0.6155057451
H       -1.1528118881    1.2676946061   -0.7351712813
H        1.4453198460   -0.3673691093   -1.1878283081
H       -0.8079740030   -0.0853931232   -3.4215740518
H       -1.0451588180   -1.8177488241   -3.7180078786
H        0.5903735366   -1.1565460680   -3.5697771775
H       -3.8032929597   -3.5993462759    5.4621219878
H       -2.4374705753   -2.4416861157    5.6059037867
H       -2.2349913364   -3.9285493726    4.6509550472
H       -0.1073809831   -2.3493288381   -1.4505937669
H       -1.5026826857   -1.3016956148   -1.3207785100
H        1.7570236361   -0.5690397499    1.7100935474
H        1.2993705487    0.9561076954    1.9902213564
29   
Generated by ForceBalance from scan.xyz: Frame 14 of 24
C       -2.2766265065   -0.8676072237    1.0019308728
C       -3.1807235536   -1.4795706633    1.8346619878
C       -0.9275147804   -0.7499176662    1.4281467771
C       -2.6875896722   -1.9529431916    3.0698405035
C       -0.1601043164    0.9578263141   -0.3969271162
C        0.3297674798   -0.3825433233   -0.8972048924
C        0.1745067469   -0.1415662936    0.6020630142
C       -0.4028449185   -0.9429146883   -3.2415251442
C       -3.0550507366   -3.0292661322    5.1573513372
C       -0.5008648981   -1.3152318461   -1.7552413097
N       -0.5457416371   -1.2228088393    2.6170466368
N       -1.4233616358   -1.8178830446    3.4425862682
N        1.4480981999    0.0537740830    1.2704672608
O       -3.5685255522   -2.5608172202    3.8967489358
H       -2.6071704371   -0.4552629695    0.0561618937
H       -4.2300403693   -1.5982324036    1.5828929541
H        0.5212059381    1.8018943372   -0.4235746284
H       -1.2070970609    1.2053750501   -0.5504409035
H        1.3839865278   -0.3844060211   -1.1648734830
H       -0.7702116095    0.0746742356   -3.4139695349
H       -0.9921292077   -1.6270289988   -3.8615350905
H        0.6348385706   -0.9835805491   -3.5907883673
H       -3.9109879300   -3.4787787258    5.6617393687
H       -2.6529601071   -2.1993264788    5.7441185325
H       -2.2653699909   -3.7690864716    5.0030219135
H       -0.1486058876   -2.3441310711   -1.6081095346
H       -1.5519100535   -1.3121465431   -1.4575309704
H        1.7569289452   -0.8467172367    1.6374844515
H        1.2909759070    0.6228702961    2.1031912001
29   
Generated by ForceBalance from scan.xyz: Frame 15 of 24
C       -2.2367861196   -1.1119175129    0.9327377838
C       -3.1185848332   -1.7153262612    1.7952415240
C       -0.9302426825   -0.8075981709    1.3955077853
C       -2.6480742105   -1.9889834527    3.0976722556
C       -0.2180520766    1.0470608601   -0.3027948466
C        0.2221115469   -0.2396336927   -0.9605207299
C        0.1420700966   -0.1578277705    0.5615202189
C       -0.2143453082   -0.8858750699   -3.3539975192
C       -3.0168321449   -2.8512317486    5.2820429065
C       -0.6652344234   -1.0465245604   -1.8950694844
N       -0.5640779906   -1.1080029102    2.6441357525
N       -1.4214692195   -1.6908298059    3.4992631675
N        1.4538090252   -0.0475565602    1.1736654890
O       -3.5090613824   -2.5812327365    3.9565861067
H       -2.5484341344   -0.8656690653   -0.0738075389
H       -4.1335270413   -1.9784921324    1.5137058607
H        0.4692666810    1.8859102720   -0.2653744601
H       -1.2709085415    1.3080364253   -0.3781188109
H        1.2658711151   -0.2368150103   -1.2659880579
H       -0.2338351828    0.1673879298   -3.6545574925
H       -0.8669435934   -1.4444518899   -4.0333422568
H        0.8082328975   -1.2533035635   -3.4932893095
H       -3.8514532368   -3.3210397830    5.8033993531
H       -2.7214923439   -1.9250304120    5.7817655707
H       -2.1560250997   -3.5239405325    5.2459711065
H       -0.6441843339   -2.1084162621   -1.6187866384
H       -1.7085361901   -0.7244000739   -1.8246584152
H        1.7973421609   -0.9885391439    1.3695113037
H        1.3412473516    0.3742784041    2.0958552670
29   
Generated by ForceBalance from scan.xyz: Frame 16 of 24
C       -1.8965365748   -1.7273275458    1.0103701876
C       -2.7661905757   -2.2566447142    1.9339901565
C       -1.4103318058   -0.4107953213    1.2099306502
C       -3.1158874593   -1.4334468657    3.0245352475
C       -0.8985124782    0.5633265751   -1.1575503136
C        0.3054017418   -0.3025680836   -0.8728985227
C       -0.4663979331    0.3187912905    0.2867014363
C        1.2428850580   -1.9196087290   -2.5555061934
C       -4.3229871290   -1.0887405022    5.0435293069
C        0.3827342028   -1.7615401406   -1.2933978760
N       -1.7829261306    0.2954550134    2.2814131559
N       -2.6379271516   -0.2072413663    3.1851818328
N        0.2404463181    1.4490357587    0.8662252674
O       -3.9764510726   -1.9408290389    3.9363269145
H       -1.5946854836   -2.3149628613    0.1546336264
H       -3.1745886353   -3.2592943364    1.8525490065
H       -0.7562854700    1.5697139967   -1.5379068924
H       -1.7989102923    0.0552189796   -1.4947402893
H        1.2530338050    0.2180828377   -0.9915525847
H        0.8369818192   -1.3238324434   -3.3802286114
H        1.2822946101   -2.9651204869   -2.8791706325
H        2.2704388716   -1.5846324647   -2.3765683511
H       -5.0132962236   -1.6777553610    5.6482113556
H       -4.8036041328   -0.1722828912    4.6915021606
H       -3.4337706080   -0.8230033759    5.6209801400
H        0.8035256829   -2.3740130877   -0.4855193683
H       -0.6141127078   -2.1586861668   -1.5099123231
H        0.8783114954    1.0987278926    1.5822893854
H       -0.4375725877    2.0149048864    1.3771878310
29   
Generated by ForceBalance from scan.xyz: Frame 17 of 24
C       -1.5886300795   -1.8427448596    1.2050096957
C       -2.4859874701   -2.3650209893    2.1087843788
C       -1.3053687647   -0.4571202115    1.2548957354
C       -3.0648860892   -1.4639496811    3.0242824861
C       -0.8354282032    0.5882465096   -1.0917578060
C        0.3612031019   -0.3041212816   -0.8657804042
C       -0.3737942283    0.2898043820    0.3303724085
C        1.0197968144   -1.8212512879   -2.7572513898
C       -4.5359490468   -1.0282167084    4.8411811239
C        0.3767060671   -1.7388376218   -1.3653911210
N       -1.8862092781    0.3243880993    2.1717562248
N       -2.7641499793   -0.1708736928    3.0535170071
N        0.3553141398    1.3937295495    0.9358534827
O       -3.9571428220   -1.9614913793    3.9104096083
H       -1.0992763687   -2.4906793597    0.4915301787
H       -2.7451020203   -3.4188786253    2.1406762414
H       -0.6898798262    1.6052315103   -1.4418834764
H       -1.7498477155    0.1029810775   -1.4244852268
H        1.3166569938    0.1989785584   -0.9981050871
H        0.4759921291   -1.1960205502   -3.4735216751
H        1.0189685889   -2.8496502555   -3.1339443968
H        2.0583511965   -1.4733792924   -2.7328728986
H       -5.2159402324   -1.6232222106    5.4516410499
H       -5.0801092385   -0.2410911626    4.3129097204
H       -3.7618966125   -0.5688818435    5.4613276666
H        0.9305750798   -2.3841819858   -0.6707241321
H       -0.6414068532   -2.1356034713   -1.4330141577
H        0.9968469371    1.0183870233    1.6354826067
H       -0.3150346312    1.9608844027    1.4558123676
29   
Generated by ForceBalance from scan.xyz: Frame 18 of 24
C       -1.3106217407   -1.8680536598    1.4271604864
C       -2.2211501775   -2.3971231363    2.3153277288
C       -1.2200436672   -0.4624011069    1.3103794835
C       -3.0010583258   -1.4792553056    3.0455320066
C       -0.7577242970    0.6288200766   -1.0154348825
C        0.3983938308   -0.3254107814   -0.8280711665
C       -0.2875360860    0.2834186285    0.3876227399
C        0.7230779570   -1.8233440295   -2.8209681741
C       -4.6914195878   -1.0317680787    4.6580841938
C        0.2973090326   -1.7486200407   -1.3477847672
N       -1.9866587252    0.3400437902    2.0569076493
N       -2.8733329159   -0.1613847978    2.9246500672
N        0.4875313204    1.3442308727    1.0147285899
O       -3.9079195713   -1.9826025729    3.9131495810
H       -0.6614285878   -2.5181301838    0.8558828469
H       -2.3435776736   -3.4645722760    2.4713310187
H       -0.5668545188    1.6423053969   -1.3537606837
H       -1.7008261923    0.1967637622   -1.3407127770
H        1.3773638882    0.1225879638   -0.9847294505
H        0.0946332098   -1.1736636633   -3.4393981196
H        0.6403803609   -2.8451353596   -3.2065884606
H        1.7620268406   -1.4994386667   -2.9476688433
H       -5.3488791099   -1.6363654856    5.2836073548
H       -5.2744939267   -0.3979439616    3.9850689264
H       -4.0485758021   -0.3974578066    5.2737895710
H        0.9320166690   -2.4209022498   -0.7548011286
H       -0.7304554675   -2.1165202533   -1.2603193551
H        1.0939958225    0.9381143809    1.7279904035
H       -0.1636705249    1.9544615962    1.5100899890
29   
Generated by ForceBalance from scan.xyz: Frame 19 of 24
C       -1.0560710987   -1.8054463214    1.5798657865
C       -1.9667724335   -2.3606860825    2.4511144465
C       -1.1499059126   -0.4239105447    1.2976316625
C       -2.9289048566   -1.4879680937    2.9977934095
C       -0.6630677770    0.7229847795   -0.9912440004
C        0.4344132793   -0.3058218925   -0.8364908700
C       -0.2028862819    0.3225759167    0.3940835148
C        0.4606937120   -1.8068823702   -2.8594575933
C       -4.8085678819   -1.1143815939    4.4070497319
C        0.2086849611   -1.7171597219   -1.3478779764
N       -2.0878293188    0.3389037366    1.8669696248
N       -2.9748256302   -0.1880115715    2.7209416718
N        0.6263097244    1.3210568148    1.0541538745
O       -3.8355572201   -2.0176045199    3.8497101171
H       -0.2722858293   -2.4076604844    1.1360391998
H       -1.9626232836   -3.4111685428    2.7254166888
H       -0.4080598784    1.7263785251   -1.3170225810
H       -1.6365081676    0.3619684241   -1.3127941075
H        1.4387063083    0.0738823592   -1.0120530869
H       -0.2072821817   -1.1318723384   -3.4048781841
H        0.2945682239   -2.8241140732   -3.2300848296
H        1.4905611298   -1.5240615053   -3.1043285720
H       -5.4320865574   -1.7344217562    5.0519164501
H       -5.4076175400   -0.6544240306    3.6170166443
H       -4.3193764009   -0.3261451680    4.9849826982
H        0.8739909187   -2.4216050710   -0.8306102318
H       -0.8174015135   -2.0379170531   -1.1368491898
H        1.1911410725    0.8722684370    1.7757394571
H        0.0095092419    1.9771158382    1.5348665747
29   
Generated by ForceBalance from scan.xyz: Frame 20 of 24
C       -0.8477558682   -1.6973009845    1.7434360271
C       -1.7519251744   -2.2723363680    2.6062778161
C       -1.0937698957   -0.3809382924    1.2879894648
C       -2.8621007372   -1.4809046815    2.9700116858
C       -0.5882566116    0.8214786794   -0.9620827969
C        0.4333289110   -0.2911458245   -0.8566790466
C       -0.1298716883    0.3558757130    0.3981775509
C        0.2173030901   -1.8040852676   -2.8655930302
C       -4.8918073658   -1.2153338120    4.1818840876
C        0.0745228274   -1.6831225123   -1.3422675149
N       -2.1710257753    0.3035222215    1.6766938796
N       -3.0555723729   -0.2439150098    2.5244933679
N        0.7773262937    1.2688021260    1.0798192130
O       -3.7615024444   -2.0296275801    3.8173620193
H        0.0386154110   -2.2320250771    1.4174101832
H       -1.6439431256   -3.2777631058    3.0015134603
H       -0.2595570851    1.8069290648   -1.2760192006
H       -1.5954688773    0.5482471526   -1.2641581427
H        1.4589090638    0.0093314913   -1.0607246071
H       -0.4374179252   -1.0889411820   -3.3747454698
H       -0.0434583119   -2.8104248357   -3.2106977952
H        1.2454634993   -1.5962319928   -3.1825188924
H       -5.4816325903   -1.8372390322    4.8559911636
H       -5.4742498885   -0.9432757723    3.2979924048
H       -4.5650472306   -0.3020099818    4.6854980972
H        0.7186169843   -2.4300635790   -0.8590277564
H       -0.9544628016   -1.9273938964   -1.0549346646
H        1.3177457279    0.7619708419    1.7813356891
H        0.2226061633    1.9632548722    1.5815968462
29   
Generated by ForceBalance from scan.xyz: Frame 21 of 24
C       -0.6710596303   -1.5449333257    1.9452103281
C       -1.5816500602   -2.1307742761    2.7908048470
C       -1.0263756381   -0.3339806019    1.3021197078
C       -2.8126373777   -1.4550487757    2.9477634443
C       -0.5072608382    0.9078138011   -0.9177908831
C        0.4212147530   -0.2890206709   -0.8697249636
C       -0.0435402920    0.3773925367    0.4139219054
C        0.0001341940   -1.8086782594   -2.8451641363
C       -4.9738717063   -1.3241944375    3.9319731689
C       -0.0737224366   -1.6495495813   -1.3207511251
N       -2.2133466318    0.2389847101    1.4939327705
N       -3.1107435890   -0.3219884139    2.3241187346
N        0.9574508366    1.1878974186    1.0927567387
O       -3.7196524602   -2.0150195009    3.7794270558
H        0.2993303935   -1.9965725917    1.7570685420
H       -1.3975255584   -3.0620294700    3.3177089207
H       -0.1028176888    1.8654883843   -1.2286873819
H       -1.5453501743    0.7311204155   -1.1827997560
H        1.4605208311   -0.0749598483   -1.1110787885
H       -0.6089951694   -1.0475289912   -3.3442251917
H       -0.3604857178   -2.7938263418   -3.1602671213
H        1.0295535629   -1.6975015584   -3.2041603902
H       -5.5480470397   -1.9331470664    4.6309524529
H       -5.4912764707   -1.2450509847    2.9725322088
H       -4.8163958491   -0.3198581007    4.3332525807
H        0.5191101696   -2.4407511711   -0.8419262851
H       -1.1080316974   -1.7973445316   -0.9898305104
H        1.4895557094    0.6167311233    1.7494249348
H        0.4873554220    1.9094760425    1.6399575126
29   
Generated by ForceBalance from scan.xyz: Frame 22 of 24
C       -0.5335442025   -1.3779773208    2.1719013357
C       -1.4432638187   -1.9778391967    3.0069363921
C       -0.9711562457   -0.3150546923    1.3423110661
C       -2.7609045949   -1.4667786719    2.9656075944
C       -0.4892917547    0.9666976543   -0.8629653095
C        0.3585501259   -0.2881391943   -0.8905544287
C        0.0062751872    0.3753124107    0.4319145214
C       -0.2397710089   -1.7825026196   -2.8407093126
C       -5.0103289218   -1.5219532060    3.7347764764
C       -0.2473615238   -1.6109609096   -1.3161601971
N       -2.2350096777    0.1016863189    1.3509344340
N       -3.1357822444   -0.4758409062    2.1683498966
N        1.0955464593    1.0973610178    1.0721167455
O       -3.6680362869   -2.0405322353    3.7877890155
H        0.4986140172   -1.7167727031    2.1282822652
H       -1.1974083909   -2.8047719289    3.6661001923
H       -0.0334495957    1.9018049128   -1.1709767565
H       -1.5490052422    0.8667215455   -1.0737254012
H        1.3967227651   -0.1401575503   -1.1820084406
H       -0.8097686909   -0.9815522242   -3.3236372059
H       -0.6825418822   -2.7401089443   -3.1353884520
H        0.7812943698   -1.7489439076   -3.2375250212
H       -5.5699944017   -2.1128184220    4.4605253167
H       -5.4312635443   -1.6397973942    2.7330331916
H       -5.0268781070   -0.4626768399    4.0034116617
H        0.3046758750   -2.4385341100   -0.8498068789
H       -1.2766654475   -1.6816961897   -0.9472691430
H        1.6521574185    0.4725299568    1.6545157857
H        0.7138909521    1.8182132140    1.6844953297
29   
Generated by ForceBalance from scan.xyz: Frame 23 of 24
C       -0.4373000722   -1.1798944261    2.4007055429
C       -1.3636873774   -1.7685458673    3.2258463970
C       -0.8921662383   -0.3050393402    1.3819979441
C       -2.7169904077   -1.4411068562    2.9841113212
C       -0.4182973261    0.9828935662   -0.8239869096
C        0.3415972263   -0.3211256490   -0.9063217548
C        0.0916919382    0.3408113773    0.4452923806
C       -0.4156660887   -1.7448761823   -2.8510785889
C       -5.0178243171   -1.6708104315    3.5369203924
C       -0.3573321563   -1.5991110597   -1.3247582597
N       -2.1895661900   -0.0560400031    1.2117517600
N       -3.1068642295   -0.6254211833    2.0146530987
N        1.2604666304    0.9728336786    1.0332933150
O       -3.6412564170   -2.0054988499    3.7939849532
H        0.6224870979   -1.3899851089    2.5163343634
H       -1.1013213150   -2.4558930259    4.0242708719
H        0.0880614241    1.8914909144   -1.1321906383
H       -1.4898691304    0.9543279514   -0.9885366621
H        1.3766259403   -0.2342433371   -1.2324491372
H       -0.9568535333   -0.9050907357   -3.3000193644
H       -0.9237067063   -2.6706211831   -3.1422611912
H        0.5899120202   -1.7630729970   -3.2868377187
H       -5.5870000920   -2.2203348480    4.2873453224
H       -5.3091949096   -1.9780232233    2.5292524736
H       -5.1802991666   -0.5948817965    3.6398111711
H        0.1646488515   -2.4631655583   -0.8913770185
H       -1.3742526185   -1.6146738483   -0.9193289625
H        1.8500932601    0.2947492818    1.5127739853
H        0.9766163734    1.6731696877    1.7173028961
29   
Generated by ForceBalance from scan.xyz: Frame 24 of 24
C       -0.4266184862   -0.9745074390    2.5862011212
C       -1.3666288078   -1.5351427257    3.4173245912
C       -0.8646439754   -0.3139081086    1.4112497480
C       -2.7157276114   -1.4015127113    3.0237871024
C       -0.3898892738    0.9860027509   -0.7908376801
C        0.2966139745   -0.3501611359   -0.9265066506
C        0.1248888677    0.2891063976    0.4530058180
C       -0.5607042650   -1.6771042140   -2.8936091106
C       -5.0253687936   -1.8010923219    3.4222826304
C       -0.4675906875   -1.5828624047   -1.3646344190
N       -2.1619085266   -0.2350027325    1.1094322490
N       -3.0895314178   -0.7804758494    1.9132683736
N        1.3508007533    0.8403953760    0.9996539194
O       -3.6535022342   -1.9421746566    3.8350564175
H        0.6304145610   -1.0409048276    2.8250811071
H       -1.1135154899   -2.0602151908    4.3333060541
H        0.1539118554    1.8762040916   -1.0888849887
H       -1.4662631741    1.0108070708   -0.9207490937
H        1.3277112950   -0.3046440768   -1.2731257455
H       -1.0750808881   -0.8019890164   -3.3051363102
H       -1.1136361528   -2.5709935214   -3.2020349243
H        0.4341375887   -1.7238517102   -3.3516185034
H       -5.6069631567   -2.2966459392    4.2002946634
H       -5.1896016114   -2.2796980562    2.4533886217
H       -5.3007126838   -0.7459890985    3.3470368890
H        0.0271794092   -2.4804205174   -0.9693374379
H       -1.4751855375   -1.5655380070   -0.9395665855
H        1.9438881106    0.1166222181    1.4006615353
H        1.1486156838    1.5227348692    1.7288511152
