18   
Generated by ForceBalance from scan.xyz: Frame 1 of 24
C        0.8490022494    0.1927588184    2.4910706544
C        0.2398696792    0.7659718116    3.5637160900
C       -0.1169707658    0.3282521762    1.4419791940
C        0.7385730533   -1.2840050954   -0.3685768818
C       -1.0986705669    0.3678339014   -0.9653955878
C        0.1836244402    1.1263236212   -0.9906622232
C        0.0193550298   -0.0321524453    0.0064787299
N       -1.2070511706    0.9356646406    1.8702973068
O        1.1350955978   -1.5463782647   -1.4900738795
O       -0.9840122569    1.2217720334    3.2222079612
O        0.9094878684   -2.1405377875    0.6737104578
H        1.8213538477   -0.2739251561    2.4443751869
H        0.5310415552    0.9188135177    4.5947538357
H       -1.9682881022    0.8231252084   -0.5062434266
H       -1.2885910068   -0.3317286627   -1.7720234915
H        0.8709039276    0.9474024903   -1.8102486186
H        0.2029535085    2.1151142406   -0.5447938970
H        1.3661661536   -2.9206426468    0.3035758959
18   
Generated by ForceBalance from scan.xyz: Frame 2 of 24
C        0.8103526007    0.1671822334    2.5368408771
C        0.2145187036    0.7628095134    3.6050854915
C       -0.1334981541    0.3546077732    1.4760941239
C        0.7951951934   -1.2256826091   -0.3122275906
C       -1.1311394705    0.3239604290   -0.9299708390
C        0.1123148549    1.1499839239   -0.9584350264
C        0.0098764960   -0.0047373142    0.0416237240
N       -1.2001978840    1.0085939150    1.8937628723
O        1.4271257459   -1.3806010438   -1.3411047754
O       -0.9816153074    1.2770976052    3.2505211691
O        0.7329323228   -2.1868529461    0.6480982487
H        1.7616989096   -0.3424193875    2.5010301730
H        0.4988916129    0.8960740993    4.6407198009
H       -2.0240434345    0.7344040646   -0.4724598726
H       -1.2893377390   -0.3866486626   -1.7344493316
H        0.8093666910    1.0054748876   -1.7764959685
H        0.0735281228    2.1421877244   -0.5218992393
H        1.2604689641   -2.9367519747    0.3114287609
18   
Generated by ForceBalance from scan.xyz: Frame 3 of 24
C        0.8360966172    0.1927698782    2.5071259004
C        0.2449168477    0.7736312677    3.5862475047
C       -0.1244579430    0.3714733850    1.4603144732
C        0.8361067192   -1.1996406130   -0.2936031902
C       -1.1348752485    0.3024782770   -0.9407473169
C        0.0965744956    1.1548120713   -0.9795019491
C        0.0127899700    0.0108618130    0.0261024599
N       -1.1963863014    1.0051777970    1.8939246947
O        1.6744074169   -1.2778148358   -1.1715486698
O       -0.9633132763    1.2707934508    3.2496271563
O        0.5517450920   -2.2416342540    0.5323686094
H        1.7982973360   -0.2958011745    2.4550259271
H        0.5410693852    0.9072141536    4.6185439931
H       -2.0363960450    0.7023040290   -0.4902888988
H       -1.2860986413   -0.4146633618   -1.7413889376
H        0.7967481162    1.0187282261   -1.7965386903
H        0.0358223724    2.1525166720   -0.5582268223
H        1.1319074122   -2.9763750445    0.2540086748
18   
Generated by ForceBalance from scan.xyz: Frame 4 of 24
C        0.8460623008    0.2162102444    2.5106200138
C        0.2534491971    0.7770817504    3.5997923457
C       -0.1293959370    0.3810459429    1.4754444056
C        0.8630298585   -1.1804581372   -0.2411762225
C       -1.1494259755    0.2791235475   -0.9181806590
C        0.0721588562    1.1531583509   -0.9716977155
C        0.0041631730    0.0197385402    0.0409504415
N       -1.2109096436    0.9874230779    1.9233522753
O        1.8713148877   -1.1945568942   -0.9201642102
O       -0.9681245377    1.2504349056    3.2782873138
O        0.3955719204   -2.2891909412    0.3906162889
H        1.8221365111   -0.2428186609    2.4424038385
H        0.5577355608    0.9119990620    4.6295609608
H       -2.0564197111    0.6731943568   -0.4734237527
H       -1.2958899928   -0.4461144729   -1.7127014745
H        0.7716269198    1.0231648408   -1.7907638558
H       -0.0034952988    2.1564056097   -0.5660722841
H        1.0190817428   -3.0107161606    0.1791808827
18   
Generated by ForceBalance from scan.xyz: Frame 5 of 24
C        0.8871238747    0.2547443579    2.5228368481
C        0.2860952005    0.7667671540    3.6315465376
C       -0.1267802733    0.3538237816    1.5164062403
C        0.8662583462   -1.2075672875   -0.1715964375
C       -1.1632023949    0.2475912448   -0.8660257306
C        0.0629036404    1.1219028024   -0.9364266979
C       -0.0054817128   -0.0054000502    0.0795306463
N       -1.2362835908    0.8787165434    1.9970769239
O        1.9964058057   -1.1880429370   -0.6184266593
O       -0.9745490270    1.1533389061    3.3464109467
O        0.2518278623   -2.3577308459    0.2068369798
H        1.8935874502   -0.1256976618    2.4193705259
H        0.6085168410    0.9204321696    4.6531453161
H       -2.0669478674    0.6505596520   -0.4227980188
H       -1.3183807773   -0.4806888025   -1.6560336188
H        0.7534186166    0.9894575888   -1.7631535166
H       -0.0062598041    2.1299178031   -0.5410367350
H        0.8941152184   -3.0779325883    0.0543006512
18   
Generated by ForceBalance from scan.xyz: Frame 6 of 24
C        0.9029308415    0.2990244287    2.5286015488
C        0.2953407853    0.8200241729    3.6296721609
C       -0.1126840775    0.3713471763    1.5214244999
C        0.8939087176   -1.2191906498   -0.1150413018
C       -1.1492331752    0.2164576663   -0.8526071301
C        0.0786245736    1.0889124054   -0.9510734335
C        0.0087165083   -0.0162133853    0.0908459270
N       -1.2287410352    0.8900879274    1.9940690500
O        2.0939699628   -1.1845650640   -0.3055583306
O       -0.9703974165    1.1861241835    3.3393886356
O        0.2024235272   -2.3832784319   -0.0264367039
H        1.9135778734   -0.0698148878    2.4263161010
H        0.6156067227    0.9930624378    4.6488618823
H       -2.0504322903    0.6359342951   -0.4198755859
H       -1.3091318111   -0.5296751461   -1.6244800855
H        0.7622833421    0.9386343873   -1.7808499522
H        0.0169441470    2.1060834064   -0.5782236591
H        0.8568821818   -3.1016580644   -0.1298280365
18   
Generated by ForceBalance from scan.xyz: Frame 7 of 24
C        0.9199186033    0.3246444114    2.5498689343
C        0.3179502483    0.8518486925    3.6509631742
C       -0.1074320593    0.3755508631    1.5531119468
C        0.8878222508   -1.2281533947   -0.0813603446
C       -1.1772079109    0.1989015844   -0.7974644843
C        0.0511380672    1.0640016521   -0.9353472191
C       -0.0039809827   -0.0302745972    0.1249655825
N       -1.2245418093    0.8872787860    2.0318944315
O        2.1028380909   -1.2080046153   -0.0336305742
O       -0.9554859494    1.2003593094    3.3707864797
O        0.1909485303   -2.3642172806   -0.3328142164
H        1.9314508900   -0.0373086613    2.4372093524
H        0.6468332564    1.0400685004    4.6647113049
H       -2.0658794220    0.6320724143   -0.3528222400
H       -1.3569361955   -0.5562204265   -1.5553341303
H        0.7137968909    0.9013314940   -1.7800522920
H        0.0087563077    2.0851889796   -0.5705871535
H        0.8542685025   -3.0741751193   -0.4396739390
18   
Generated by ForceBalance from scan.xyz: Frame 8 of 24
C        0.8801261069    0.2935222791    2.5852548204
C        0.2918838201    0.8456112409    3.6813858986
C       -0.1467303679    0.3581814906    1.5884768245
C        0.8259773030   -1.2501300097   -0.0711852393
C       -1.2704390027    0.1636112571   -0.7291815162
C       -0.0479692018    1.0200584236   -0.9178426684
C       -0.0707308932   -0.0650559726    0.1631098936
N       -1.2498769043    0.9039438133    2.0637981054
O        2.0145313351   -1.2780730953    0.1887962193
O       -0.9727886509    1.2237715234    3.3984728193
O        0.1914864969   -2.2961358178   -0.6587007174
H        1.8800413657   -0.0980499098    2.4740325467
H        0.6258857425    1.0350719953    4.6932326646
H       -2.1393756302    0.6076963997   -0.2575531606
H       -1.4776776596   -0.5984295579   -1.4717481995
H        0.5859153579    0.8443799518   -1.7820068707
H       -0.0667712946    2.0434678024   -0.5573529077
H        0.8724211204   -2.9841511577   -0.7935465795
18   
Generated by ForceBalance from scan.xyz: Frame 9 of 24
C        0.8914917440    0.2690780535    2.6247667630
C        0.3274456787    0.9089894842    3.6853269760
C       -0.1004849125    0.3878230493    1.5978096600
C        0.8477255199   -1.2676676446   -0.0527281276
C       -1.2665390952    0.1270378184   -0.6871335934
C       -0.0492942663    0.9645650286   -0.9368749478
C       -0.0442991106   -0.0871621566    0.1876354378
N       -1.1610393681    1.0475206461    2.0258690740
O        1.9725612330   -1.3942408985    0.3961967038
O       -0.8912823593    1.3868784748    3.3559694338
O        0.3168112001   -2.1741231012   -0.9151567511
H        1.8534131949   -0.2143138433    2.5546311252
H        0.6518730217    1.1023029119    4.6995401105
H       -2.1134183871    0.5940227041   -0.1980632039
H       -1.5009856151   -0.6566795205   -1.3972028821
H        0.5597284996    0.7534849860   -1.8107901942
H       -0.0460836066    1.9970527828   -0.6031016087
H        1.0106391471   -2.8475095175   -1.0551472033
18   
Generated by ForceBalance from scan.xyz: Frame 10 of 24
C        0.1398246398    0.4768217940    2.7680835265
C       -0.5730108212    1.2602915892    3.6228441160
C       -0.5315992495    0.6533248241    1.5145298687
C        0.6300870269   -1.1556755930    0.1746329450
C       -1.1907856667    0.3254561584   -0.9566065770
C        0.1007025471    1.0740369806   -0.9716506769
C       -0.2007012730    0.0856462550    0.1781613703
N       -1.5569332715    1.4780899890    1.6310704876
O        1.4586519896   -1.4563856568    1.0154462121
O       -1.5853267238    1.8715247328    2.9720754444
O        0.4448681976   -1.9134608512   -0.9413561880
H        1.0023456364   -0.1382336321    2.9687350463
H       -0.4905855978    1.4791330974    4.6794960923
H       -2.0868557284    0.8652924448   -0.6735761950
H       -1.3214975769   -0.4829584215   -1.6651885979
H        0.8671037330    0.7779119921   -1.6809213476
H        0.1019502195    2.1193913084   -0.6813693794
H        1.0933996411   -2.6405979873   -0.8775933123
18   
Generated by ForceBalance from scan.xyz: Frame 11 of 24
C       -0.5280860434    0.6556979501    3.0057248361
C       -1.2836825779    1.6032994533    3.6255484909
C       -0.6896979957    0.9569883359    1.6141295104
C        0.5219474050   -1.0413054834    0.6193133642
C       -0.6770577246    0.6464014903   -0.9492853709
C        0.6477078748    1.2236142414   -0.5921004105
C       -0.0808030736    0.3065030173    0.4207114633
N       -1.4793803607    2.0021575999    1.4395792281
O        0.7962543623   -1.5551949515    1.6892920387
O       -1.8575840886    2.4204523912    2.7177722455
O        0.8087209575   -1.6651935774   -0.5589472386
H        0.0503957535   -0.1424754197    3.4414574066
H       -1.5064650789    1.8189778853    4.6623584623
H       -1.5424238573    1.2980381974   -0.9129936343
H       -0.7076192574   -0.1580726260   -1.6739415030
H        1.5368802572    0.8164729084   -1.0613032569
H        0.6950624640    2.2658312057   -0.2953745203
H        1.2460939291   -2.5024349262   -0.3135688744
18   
Generated by ForceBalance from scan.xyz: Frame 12 of 24
C       -0.7360192821    0.6489452124    2.9772600402
C       -1.2583280145    1.7284824852    3.6212775933
C       -0.4704583718    1.1428735313    1.6587828944
C        0.7127368806   -0.8855431437    0.6932451115
C       -0.7350654035    0.5959454793   -0.8540114759
C        0.5747760445    1.2849634191   -0.7070891702
C        0.0565066207    0.4302755438    0.4622447457
N       -0.8128694882    2.4141222754    1.5460160272
O        0.8611569530   -1.4378738070    1.7687987451
O       -1.3189341324    2.7916393485    2.7921638952
O        1.1587433008   -1.4562617341   -0.4630076390
H       -0.5418197582   -0.3392536072    3.3611648512
H       -1.6153870043    1.8947875019    4.6292084919
H       -1.6386369038    1.1881919427   -0.7584685739
H       -0.7956026544   -0.2744641758   -1.4975231677
H        1.4272588445    0.8889317603   -1.2461516835
H        0.5738800526    2.3515907734   -0.5138532724
H        1.5659831983   -2.3025727322   -0.1984761631
18   
Generated by ForceBalance from scan.xyz: Frame 13 of 24
C       -0.7258727947    0.6688201056    2.9729182699
C       -1.2043905057    1.7605465685    3.6303667798
C       -0.4514946313    1.1650180012    1.6569349343
C        0.6820323006   -0.8851039797    0.6755410081
C       -0.7614333356    0.5948217561   -0.8545044202
C        0.5429804815    1.2994244242   -0.7223090522
C        0.0538244183    0.4473205043    0.4538045577
N       -0.7496459233    2.4487064054    1.5578013175
O        0.6004702814   -1.5587577679    1.6873536052
O       -1.2334304112    2.8324591733    2.8110181648
O        1.3460368321   -1.3403905188   -0.4252089757
H       -0.5743940158   -0.3325797169    3.3414690738
H       -1.5501601816    1.9299072596    4.6417422397
H       -1.6740838357    1.1711379756   -0.7474574430
H       -0.8180330228   -0.2816848595   -1.4909367767
H        1.3919173670    0.9152141986   -1.2745097867
H        0.5281674202    2.3676207460   -0.5392134821
H        1.6640756381   -2.2326207822   -0.1901172356
18   
Generated by ForceBalance from scan.xyz: Frame 14 of 24
C       -0.7856484699    0.6303837999    2.9714704416
C       -1.2011542338    1.7283505402    3.6602494050
C       -0.4372222673    1.1554382518    1.6845099773
C        0.6842770906   -0.8926353590    0.7018592928
C       -0.7991243273    0.5430786915   -0.8159075780
C        0.4929074677    1.2842584759   -0.7168884276
C        0.0489243822    0.4395582821    0.4725746935
N       -0.6358603638    2.4602569264    1.6286586470
O        0.4118350959   -1.6615784519    1.6065242579
O       -1.1273180188    2.8300271182    2.8839023269
O        1.5662744891   -1.2340407375   -0.2777097824
H       -0.7236409272   -0.3947123252    3.2998250400
H       -1.5635731516    1.8842788193    4.6679879160
H       -1.7270363344    1.0939574149   -0.7039619723
H       -0.8460647826   -0.3427911872   -1.4413061814
H        1.3384900431    0.9162488825   -1.2845890581
H        0.4524168916    2.3552042056   -0.5558616181
H        1.8479493048   -2.1463546493   -0.0734405864
18   
Generated by ForceBalance from scan.xyz: Frame 15 of 24
C       -0.6798611985   -0.5990217969    2.6243320759
C       -0.9088100192    0.2204946042    3.6865932013
C       -0.2571906532    0.3018160490    1.5935025878
C        0.6176815305   -1.3864763003   -0.0643767686
C       -0.7931871836    0.5674109537   -0.9367212642
C        0.5684900673    1.1458985134   -0.6987164894
C        0.1014157296   -0.0005505610    0.1802052635
N       -0.2417725468    1.5508462807    2.0211835768
O        0.1254046988   -2.4037578041    0.3890765002
O       -0.6618207555    1.5054347554    3.3548087264
O        1.6602076876   -1.4244167513   -0.9355763157
H       -0.7879875751   -1.6702077465    2.5554126243
H       -1.2373429184    0.0505282118    4.7036606425
H       -1.6636059247    1.1183470928   -0.5957038201
H       -0.9489929212   -0.0598676091   -1.8093413817
H        1.3495682842    0.9234863093   -1.4155304671
H        0.6324472198    2.1112184501   -0.2103070315
H        1.8556205403   -2.3711349787   -1.0769499360
18   
Generated by ForceBalance from scan.xyz: Frame 16 of 24
C       -0.6947703954   -0.5763410590    2.5849378540
C       -0.8361389990    0.2163791047    3.6821751396
C       -0.2077212293    0.3250382038    1.5836882172
C        0.6143673161   -1.3587155055   -0.0825622379
C       -0.8405346871    0.5959804474   -0.9174177022
C        0.5392527153    1.1688461999   -0.7405502491
C        0.0967028633    0.0336087245    0.1557532908
N       -0.0734075604    1.5490355905    2.0574989834
O        0.0030237650   -2.3769611804    0.1828926307
O       -0.4798451621    1.4866397113    3.3958984208
O        1.8323606870   -1.3839883217   -0.6806471798
H       -0.9009849995   -1.6304191819    2.4757421694
H       -1.1662684200    0.0361481073    4.6969756870
H       -1.6912698166    1.1607988571   -0.5501076490
H       -1.0391738685   -0.0334443198   -1.7798694455
H        1.2874615579    0.9353583212   -1.4893788479
H        0.6342408970    2.1403953595   -0.2696108237
H        2.0469666572   -2.3276698616   -0.8171349141
18   
Generated by ForceBalance from scan.xyz: Frame 17 of 24
C       -0.7362476167   -0.6236994848    2.5371147103
C       -0.8467613806    0.1464496818    3.6539580620
C       -0.2353985252    0.2880898697    1.5524920635
C        0.5659101337   -1.3816219480   -0.1199311089
C       -0.9202411473    0.5748194794   -0.9256499130
C        0.4714432231    1.1403543048   -0.7881672889
C        0.0395659346    0.0108538595    0.1164711274
N       -0.0628767106    1.4961447145    2.0523693480
O       -0.1087333955   -2.3929020925   -0.0856055083
O       -0.4596835343    1.4128544190    3.3935348464
O        1.8971912672   -1.4040661755   -0.3793277528
H       -0.9758126117   -1.6690138120    2.4073540804
H       -1.1727266337   -0.0486746054    4.6673449554
H       -1.7542308410    1.1537573475   -0.5423426592
H       -1.1474284382   -0.0548879371   -1.7805962330
H        1.1978001830    0.8991458977   -1.5570424671
H        0.5897350210    2.1137144933   -0.3259406834
H        2.1357659445   -2.3436789740   -0.5044060341
18   
Generated by ForceBalance from scan.xyz: Frame 18 of 24
C       -0.7153719333   -0.5896355358    2.5387912277
C       -0.8209694841    0.2081583824    3.6366693202
C       -0.2403063878    0.3014810641    1.5232452974
C        0.5502452562   -1.4090159754   -0.1108615655
C       -0.9684661109    0.5117757340   -0.9445760660
C        0.4268232037    1.0815420863   -0.8601918558
C        0.0104561195   -0.0159998730    0.0922234277
N       -0.0765395739    1.5241489201    1.9883593731
O       -0.1234682074   -2.4046704386   -0.2909188870
O       -0.4541788393    1.4715114828    3.3370159065
O        1.9042933676   -1.4484842663   -0.0327826051
H       -0.9462607856   -1.6410931476    2.4437083074
H       -1.1305620379    0.0356847599    4.6592472032
H       -1.7913571637    1.1106159809   -0.5681535214
H       -1.2145933452   -0.1502612644   -1.7689647532
H        1.1363315701    0.8128361606   -1.6363811175
H        0.5590172910    2.0693774831   -0.4334878810
H        2.1593715568   -2.3865093750   -0.1333860797
18   
Generated by ForceBalance from scan.xyz: Frame 19 of 24
C       -0.6693757256   -0.6001708571    2.5327012365
C       -0.7709043022    0.1872185680    3.6383003654
C       -0.2179444315    0.3039669366    1.5180748836
C        0.5548366657   -1.3795459866   -0.1676889469
C       -0.9876336004    0.5429806191   -0.9300507236
C        0.4079708867    1.1101455320   -0.8735828227
C        0.0088590051    0.0018862620    0.0808390947
N       -0.0628741758    1.5244048618    1.9914035855
O       -0.0708259757   -2.3254747242   -0.6047673521
O       -0.4241462930    1.4573083245    3.3440307773
O        1.8581830164   -1.4751740756    0.2007864388
H       -0.8881499595   -1.6543296318    2.4362724974
H       -1.0652428262    0.0024475018    4.6632183696
H       -1.7984388114    1.1436788752   -0.5313432231
H       -1.2522673238   -0.1151998961   -1.7513980930
H        1.0996918467    0.8469671458   -1.6678439605
H        0.5553243341    2.0913867059   -0.4364818534
H        2.1208991506   -2.4041386051    0.0508020133
18   
Generated by ForceBalance from scan.xyz: Frame 20 of 24
C       -0.6151218113   -0.5860747831    2.5199660311
C       -0.7625742148    0.2203580448    3.6062385735
C       -0.2399823357    0.3205783106    1.4771179861
C        0.5331123094   -1.3627398595   -0.2372097340
C       -1.0194003444    0.5517141140   -0.9650473576
C        0.3735386782    1.1149456383   -0.9255926560
C       -0.0178920776    0.0069109511    0.0423765630
N       -0.1690344217    1.5609209906    1.9181451101
O       -0.0005328918   -2.2251059714   -0.9075866836
O       -0.5103189362    1.5037483583    3.2761691241
O        1.7247996831   -1.5588121938    0.3860039187
H       -0.7509767611   -1.6565063432    2.4583019349
H       -1.0313179819    0.0409788107    4.6391064937
H       -1.8227358041    1.1550831740   -0.5559367559
H       -1.2910619935   -0.1126328955   -1.7786002991
H        1.0579514709    0.8458313362   -1.7242438621
H        0.5304447917    2.0941650069   -0.4871390257
H        1.9983221779   -2.4729123319    0.1770165435
18   
Generated by ForceBalance from scan.xyz: Frame 21 of 24
C       -0.5900934326   -0.5902565355    2.5162359259
C       -0.7551862001    0.2256020407    3.5925797531
C       -0.2347289998    0.3111845563    1.4619419941
C        0.5632728690   -1.3505277720   -0.2900452422
C       -1.0339898813    0.5319567403   -0.9726757827
C        0.3458259591    1.1150510874   -0.9479874902
C       -0.0151960902   -0.0052024714    0.0275155530
N       -0.1921072269    1.5579977163    1.8888730969
O        0.1731952505   -2.1046770233   -1.1611060708
O       -0.5303896408    1.5104173537    3.2475867927
O        1.6020690586   -1.6644810512    0.5292042791
H       -0.6934613438   -1.6647172546    2.4704373605
H       -1.0183665124    0.0523756852    4.6279132254
H       -1.8405811871    1.1197098982   -0.5477709039
H       -1.3010197711   -0.1363212658   -1.7840967442
H        1.0260708480    0.8542605966   -1.7526266779
H        0.4951633387    2.0927126436   -0.5037101875
H        1.9094239345   -2.5494004910    0.2528555717
18   
Generated by ForceBalance from scan.xyz: Frame 22 of 24
C       -0.5542766324   -0.5820845927    2.5455871515
C       -0.7295210521    0.2455467430    3.6110726213
C       -0.2154427578    0.3099149284    1.4775598754
C        0.6069812487   -1.3300752292   -0.3090208838
C       -1.0381334219    0.5161250028   -0.9515213395
C        0.3257500104    1.1235893372   -0.9370367013
C       -0.0002640593   -0.0109914561    0.0429667805
N       -0.1929941010    1.5630993107    1.8886780476
O        0.3910202679   -1.9518685284   -1.3330634758
O       -0.5259213285    1.5292586214    3.2483374567
O        1.4594643027   -1.7876728588    0.6469273070
H       -0.6338186296   -1.6585730599    2.5158844307
H       -0.9860802965    0.0820776546    4.6496394020
H       -1.8517016883    1.0826187657   -0.5113904879
H       -1.2960641132   -0.1541018882   -1.7640757769
H        1.0040566562    0.8723345788   -1.7457094984
H        0.4612257783    2.0997068659   -0.4854953701
H        1.8072546515   -2.6366356898    0.3118233047
18   
Generated by ForceBalance from scan.xyz: Frame 23 of 24
C       -0.5972217855   -0.6012539713    2.5004253554
C       -0.7462049339    0.2256292563    3.5701202959
C       -0.2023713980    0.2815758120    1.4436563675
C        0.6860237769   -1.3138461326   -0.3660283548
C       -1.0566598293    0.4430844583   -0.9831842696
C        0.2710130210    1.1193167832   -0.9718531030
C        0.0174099392   -0.0339445190    0.0079498790
N       -0.1277274207    1.5295907594    1.8650343346
O        0.6861951562   -1.7949934352   -1.4850982875
O       -0.4780729642    1.5014579638    3.2199463063
O        1.3260033815   -1.9117482121    0.6742405821
H       -0.7245724957   -1.6725181068    2.4602048183
H       -1.0230032407    0.0669128335    4.6042259822
H       -1.8983519217    0.9587208508   -0.5331126428
H       -1.2806171349   -0.2374031376   -1.7973490349
H        0.9570914407    0.9008726182   -1.7828342919
H        0.3562333096    2.0998686777   -0.5184110633
H        1.7370465323   -2.7172026129    0.3049119144
18   
Generated by ForceBalance from scan.xyz: Frame 24 of 24
C        0.8530500566    0.2124071921    2.4678618508
C        0.2333017618    0.7781061948    3.5382919874
C       -0.1164631051    0.3220615144    1.4185190683
C        0.6806582873   -1.3254164924   -0.3967767664
C       -1.0784200532    0.4083359077   -0.9873454106
C        0.2375722097    1.1038654022   -1.0212078172
C        0.0154929743   -0.0460726156   -0.0165364267
N       -1.2177655232    0.9109015172    1.8455855558
O        0.8331329509   -1.7077715505   -1.5433821439
O       -1.0003567511    1.2065474523    3.1957179797
O        1.1099319350   -2.0570816057    0.6662012510
H        1.8339817625   -0.2350134007    2.4211802159
H        0.5219912208    0.9421051428    4.5683220689
H       -1.9220489229    0.9105750044   -0.5293800452
H       -1.3015879326   -0.2857331006   -1.7895930570
H        0.9128775805    0.8884750224   -1.8423190202
H        0.3128387054    2.0913020270   -0.5778279935
H        1.5038348417   -2.8663998294    0.2866622983
