17   
Generated by ForceBalance from scan.xyz: Frame 1 of 24
C        4.0185096901   -1.1975281437    5.3058762713
C        4.1577559553    0.2630332276    3.6251191802
C        4.7323752153   -0.0695413192    4.8409094815
C        1.1051974624    0.3978027401    2.4723044293
C        0.4965859464    0.6317852458    3.8393896681
C        2.2056389201   -0.6676732203    2.3360531947
N        3.0646752703   -1.5423884659    4.4365689448
N        3.1710879495   -0.6535582229    3.4176130032
O        0.7161686569    0.9777314022    1.4735534657
Br       6.1862678451    0.8011718507    5.6818733523
H        4.1655770908   -1.7631499870    6.2166532890
H        4.3805816266    1.0506779278    2.9188223732
H       -0.4673253105    0.1092003042    3.8651989480
H        1.1093056381    0.2464996373    4.6551402816
H        0.2957350486    1.6969819172    3.9731804095
H        2.7055498549   -0.5250267812    1.3758098118
H        1.7367711327   -1.6560520871    2.3449330917
17   
Generated by ForceBalance from scan.xyz: Frame 2 of 24
C        4.0539638506   -1.4687223972    5.3502227221
C        4.5081625341   -0.0709376797    3.6723763321
C        4.9543783073   -0.4660985565    4.9228574242
C        1.2679186173    0.2029726171    2.5523662106
C        1.0167763620    0.7407370909    3.9422210784
C        2.4883228340   -0.7040243729    2.3019777467
N        3.1114447909   -1.6795105088    4.4278129916
N        3.4083804203   -0.8320618067    3.4121584742
O        0.5122598622    0.4042272981    1.6180794569
Br       6.4686771161    0.1947618486    5.8439849377
H        4.0620663284   -2.0371049305    6.2711044910
H        4.8889884822    0.6638498477    2.9769258014
H        0.4774060848   -0.0312165058    4.5047893958
H        1.9366981510    0.9386918347    4.4962562844
H        0.3893414644    1.6310745676    3.8812211523
H        3.0219475032   -0.3213526871    1.4287958920
H        2.1125786096   -1.6992085882    2.0516479686
17   
Generated by ForceBalance from scan.xyz: Frame 3 of 24
C        4.0960683425   -1.4720249750    5.3121005570
C        4.4920180000   -0.0770965697    3.6171108695
C        4.9855122191   -0.4757725630    4.8484768502
C        1.2469453272    0.2656738579    2.6007550656
C        1.0092666207    0.7309827977    4.0169882904
C        2.4176716137   -0.6968556967    2.3250713961
N        3.1163813032   -1.6768370484    4.4281658892
N        3.3781359863   -0.8318219466    3.4007228534
O        0.5277936043    0.5690126667    1.6651531166
Br       6.5423616002    0.1698499999    5.7075308326
H        4.1378462210   -2.0406084156    6.2319208075
H        4.8503301286    0.6537093453    2.9056063945
H        0.6633101454   -0.1223201790    4.6121907047
H        1.9325425875    1.0764100431    4.4913464585
H        0.2519065033    1.5154622997    4.0230284436
H        2.9263811586   -0.3640324420    1.4177843431
H        1.9925304097   -1.6843136526    2.1267557165
17   
Generated by ForceBalance from scan.xyz: Frame 4 of 24
C        3.9851728726   -0.6583710930    5.0516995986
C        3.8578849704    0.6546904447    3.2521231149
C        4.5259716844    0.5041401386    4.4561887218
C        0.6279468446    0.1244396440    2.4493048040
C        0.3121620732    0.5195642405    3.8724419841
C        1.9561819083   -0.6054188854    2.1805511836
N        3.0413198159   -1.1904810777    4.2712708249
N        2.9841704568   -0.3886177620    3.1792030217
O       -0.1265622100    0.3201995363    1.5129780042
Br       5.8982994109    1.6151115941    5.1354137808
H        4.2479329497   -1.1203617332    5.9943648224
H        3.9471577759    1.3980626095    2.4722205653
H        0.3651337863   -0.3587668451    4.5244973972
H        1.0607303752    1.2255204692    4.2485104564
H       -0.6806494765    0.9682049039    3.9144712588
H        2.3221103121   -0.3049654248    1.1966470375
H        1.7477979061   -1.6786887340    2.1518577091
17   
Generated by ForceBalance from scan.xyz: Frame 5 of 24
C        3.8704273649   -0.3355601846    5.1020322478
C        3.5911497634    0.9068491115    3.2707740323
C        4.2626555323    0.8726700665    4.4816178198
C        0.4865796697   -0.0275819647    2.4111998689
C        0.0853138577    0.3793062735    3.8093928994
C        1.8921111416   -0.6203329877    2.2074520710
N        3.0125258665   -1.0053125573    4.3284394407
N        2.8618047526   -0.2430272255    3.2168908595
O       -0.2456820641    0.0814632007    1.4435309685
Br       5.4718563575    2.1691645963    5.1419097459
H        4.1808673957   -0.7367966643    6.0579252614
H        3.5909248579    1.6366534108    2.4731217273
H        0.4018959559   -0.3646786306    4.5455726121
H        0.5845816996    1.3201498213    4.0709307628
H       -0.9940955024    0.5322608054    3.8459231519
H        2.2497836539   -0.3290006335    1.2178505990
H        1.8030148695   -1.7102038332    2.2303278583
17   
Generated by ForceBalance from scan.xyz: Frame 6 of 24
C        4.3149371774   -0.4186612411    4.8048811798
C        3.8771460343    0.7678998839    2.9676405019
C        4.6938209507    0.7380404102    4.0856408885
C        0.6770113899    0.0880417387    2.4744958412
C        0.4385784421    0.5873996941    3.8823696939
C        1.9740403991   -0.6887444029    2.1920656041
N        3.3288601617   -1.0626134727    4.1755299524
N        3.0829354858   -0.3358210530    3.0568484091
O       -0.1062278324    0.2763108236    1.5604004709
Br       6.0487055164    1.9814496550    4.5293815475
H        4.7202081978   -0.8015501329    5.7323928962
H        3.8180014926    1.4648334172    2.1431971242
H        0.9089194265   -0.0498678624    4.6341936938
H        0.8685143866    1.5919302654    3.9768150564
H       -0.6363674847    0.6684298058    4.0544862859
H        2.2477331671   -0.5384614687    1.1457167517
H        1.7719038817   -1.7527513256    2.3453629898
17   
Generated by ForceBalance from scan.xyz: Frame 7 of 24
C        3.9868177453   -0.2179200893    4.9917432572
C        3.5410641446    0.9887257529    3.1691560672
C        4.2754770147    1.0047087610    4.3431206893
C        0.5572101516    0.0938484191    2.3018418594
C        0.0264974958    0.3854248244    3.6910310225
C        1.8963924534   -0.6505391041    2.1914548492
N        3.1296360070   -0.9433386755    4.2689675714
N        2.8756922516   -0.2005016833    3.1626139154
O       -0.0335631412    0.4237977135    1.2887140457
Br       5.4378190631    2.3767811861    4.9307687474
H        4.3674036587   -0.5907103789    5.9336990979
H        3.4559893532    1.7091932797    2.3674720525
H        0.5239549861   -0.1997993755    4.4664247936
H        0.1750356276    1.4493684258    3.9067834917
H       -1.0507398044    0.2014480000    3.7019606866
H        2.2808075393   -0.5390777376    1.1754719087
H        1.7239024000   -1.7122653850    2.3905510014
17   
Generated by ForceBalance from scan.xyz: Frame 8 of 24
C        4.0465182773   -0.2288078532    4.9706724027
C        3.6385550636    0.9499202827    3.1200809489
C        4.3799436878    0.9644070905    4.2898897006
C        0.5887408985    0.1088660549    2.3253361275
C        0.0732879188    0.4144921942    3.7176150388
C        1.9227489447   -0.6426960871    2.1936647188
N        3.1570643780   -0.9370398817    4.2699324357
N        2.9278029249   -0.2124537068    3.1462664261
O       -0.0216810802    0.4196393295    1.3176515767
Br       5.6005720956    2.3012489641    4.8392529458
H        4.4180821674   -0.5933094370    5.9194418260
H        3.5775278055    1.6531962247    2.3011616658
H        0.7194008912    0.0325403532    4.5087544820
H       -0.0414499476    1.4976000941    3.8257701179
H       -0.9253730740   -0.0225045907    3.8145991491
H        2.2883650176   -0.5233798236    1.1716489859
H        1.7433680648   -1.7054112305    2.3814349115
17   
Generated by ForceBalance from scan.xyz: Frame 9 of 24
C        3.3486436714   -0.1474752692    5.2268765641
C        3.0575659943    1.1128371590    3.4091116689
C        3.6225472953    1.1242445800    4.6738323849
C        0.2697014611   -0.0127744757    2.1330936271
C       -0.4812559744    0.0912552190    3.4449422118
C        1.6944632834   -0.5902901859    2.1517482277
N        2.6594722016   -0.8980954444    4.3631985431
N        2.5016254230   -0.1224975644    3.2617235234
O       -0.2304662939    0.2952535928    1.0654006003
Br       4.5799350593    2.5466549990    5.4734148102
H        3.6279728889   -0.5380220824    6.1966791433
H        3.0228944443    1.8647258297    2.6329907822
H        0.1617218676   -0.0264090968    4.3180745196
H       -1.0052869027    1.0492404661    3.4883993595
H       -1.2381218088   -0.7009884262    3.4609758410
H        2.1758274269   -0.3499989696    1.2014960292
H        1.6271003742   -1.6780134618    2.2468759427
17   
Generated by ForceBalance from scan.xyz: Frame 10 of 24
C        3.4456653639   -0.3711399188    5.3081618608
C        3.4758825666    0.9676124743    3.5243507558
C        3.9402749136    0.8621462599    4.8250931059
C        0.4528618818   -0.0874326136    2.2577560600
C       -0.0814182154    0.4310809883    3.5742340967
C        1.9403359941   -0.4740513936    2.1384721927
N        2.7216503827   -0.9878123828    4.3706472492
N        2.7611916205   -0.1686829953    3.2908180347
O       -0.2562484906   -0.2694272945    1.2837728079
Br       5.0271839607    2.1080870029    5.7439805761
H        3.5938625734   -0.8252887274    6.2792254265
H        3.6106164231    1.7374448121    2.7774827049
H        0.6700891620    0.9703655653    4.1543619463
H       -0.9407583185    1.0759936179    3.3817941234
H       -0.4032962800   -0.4256844518    4.1767565476
H        2.3503608126    0.0251545134    1.2573821476
H        1.9861752479   -1.5511090330    1.9593052486
17   
Generated by ForceBalance from scan.xyz: Frame 11 of 24
C        2.7930190664   -0.7658811160    5.5206385974
C        3.0320381624    0.8119271192    3.9626863480
C        3.2812951453    0.5420945651    5.2982525664
C        0.3579083030   -0.1107627258    2.0406631272
C       -0.4280135397    0.1232750472    3.3089149726
C        1.8496348129   -0.4803029478    2.1493340322
N        2.2744475514   -1.2723417856    4.3990970429
N        2.4388334284   -0.3075879995    3.4609124350
O       -0.1396183031   -0.0769630055    0.9290566910
Br       4.1225696801    1.6881659077    6.5461888993
H        2.8077841313   -1.3469289663    6.4334781460
H        3.2383586496    1.6847641569    3.3591444905
H        0.1168744926    0.7602388456    4.0118336619
H       -1.3898612921    0.5742434279    3.0617757878
H       -0.5816517101   -0.8372921868    3.8135150348
H        2.4027102188    0.1129341348    1.4177703569
H        1.9490393418   -1.5323118351    1.8696537958
17   
Generated by ForceBalance from scan.xyz: Frame 12 of 24
C        2.8745253210   -0.7988692481    5.5057010843
C        3.0792926684    0.7786488181    3.9423510178
C        3.3666140143    0.5050774962    5.2696268107
C        0.3995911361   -0.0542577984    2.0315091853
C       -0.3982702415    0.1219918088    3.3008138442
C        1.8650461511   -0.5112192250    2.1498850748
N        2.3187541128   -1.3002977832    4.3997390987
N        2.4616479528   -0.3352302798    3.4584615940
O       -0.0620137287    0.1109630034    0.9162116919
Br       4.2549256533    1.6416227903    6.4936585569
H        2.9117350103   -1.3808510165    6.4172676553
H        3.2730597806    1.6507558879    3.3335352183
H        0.0602005514    0.8861388329    3.9381751445
H       -1.4199005219    0.4117241857    3.0530415892
H       -0.3894340387   -0.8075761889    3.8796468613
H        2.4539638794    0.0182087160    1.3981826692
H        1.8966878559   -1.5781328218    1.9120733914
17   
Generated by ForceBalance from scan.xyz: Frame 13 of 24
C        2.7389388016   -0.5504675370    5.5491518607
C        2.8419509682    0.9518966741    3.9036659989
C        3.1103628409    0.7807306481    5.2516088736
C        0.3365633666   -0.1398427800    1.9583558415
C       -0.5327011389   -0.0064370519    3.1866019269
C        1.8090552980   -0.5412974235    2.1563045157
N        2.2709795053   -1.1635179114    4.4590484525
N        2.3492134351   -0.2413977096    3.4676757086
O       -0.0691298947    0.0456826068    0.8245656070
Br       3.8457938740    2.0644891047    6.4306283849
H        2.8017224829   -1.0752122457    6.4935051749
H        2.9717609809    1.8038985369    3.2509043673
H       -0.2881212817    0.9265217268    3.7079694862
H       -1.5822282020    0.0078050909    2.8900519087
H       -0.3416965211   -0.8199180624    3.8924961414
H        2.4070239533   -0.0525417092    1.3845281351
H        1.8841312106   -1.6227587733    2.0111586202
17   
Generated by ForceBalance from scan.xyz: Frame 14 of 24
C        4.1823687978   -0.6339655609    5.3444348857
C        4.1481303315    0.6655899298    3.5318586397
C        4.7298141468    0.5421808580    4.7826599263
C        1.0887364011    0.1340326599    2.3762811456
C        0.5722473246    0.5470731047    3.7372083093
C        2.3967560409   -0.6726252005    2.3120559121
N        3.3184547004   -1.2016394415    4.4990542072
N        3.3169165998   -0.4061071200    3.4003695272
O        0.5195953773    0.4152859279    1.3363131835
Br       6.0099322466    1.7022418784    5.5537043598
H        4.3865775830   -1.0819657878    6.3081309105
H        4.2720430423    1.4073098665    2.7550677885
H        0.9746736217    1.5364512164    3.9843024876
H       -0.5168646864    0.6119600105    3.7033833896
H        0.8895085950   -0.1428949512    4.5224065872
H        2.8787449943   -0.4751850866    1.3524343862
H        2.1431268971   -1.7357223938    2.3579439825
17   
Generated by ForceBalance from scan.xyz: Frame 15 of 24
C        3.7906736334   -0.4643034823    5.4785735768
C        3.7412896505    0.8616255815    3.6854019392
C        4.2269828058    0.7845223971    4.9801762364
C        0.9352872739    0.0677448003    2.2172995470
C        0.1940441840    0.3564051705    3.5070101706
C        2.2876004415   -0.6586986800    2.3016402694
N        3.0807526095   -1.1179962855    4.5552267056
N        3.0705221629   -0.3046204913    3.4697597452
O        0.4987331879    0.3824716198    1.1241321405
Br       5.2772657506    2.0820647927    5.8702026893
H        3.9684688291   -0.9044443460    6.4510782079
H        3.8332746839    1.6306102941    2.9309853319
H        0.2427737444    1.4317032169    3.7098194043
H       -0.8576876156    0.0903866384    3.3737161147
H        0.6094031543   -0.1788379760    4.3623956176
H        2.8498710016   -0.4530395424    1.3884587190
H        2.0980650096   -1.7344234707    2.3606941365
17   
Generated by ForceBalance from scan.xyz: Frame 16 of 24
C        2.9486975052   -0.3812741293    5.5221354804
C        2.9816709580    1.0305345036    3.7956170991
C        3.3015523372    0.9330930574    5.1397402261
C        0.5037767792    0.0201551772    1.9271167505
C       -0.4736961307    0.0354030314    3.0856533336
C        1.9080022158   -0.5584100604    2.1641933118
N        2.4438322195   -1.0548053390    4.4850854267
N        2.4817402796   -0.1871602051    3.4431565410
O        0.2064090396    0.4208666233    0.8154133479
Br       4.0720403305    2.2810093250    6.2208297655
H        3.0482604855   -0.8537440881    6.4905962784
H        3.0808770085    1.8461097374    3.0928354350
H       -0.8408980095    1.0557573338    3.2299446242
H       -1.3350216424   -0.5825797701    2.8119936233
H       -0.0432753542   -0.3367464513    4.0159038162
H        2.5567432769   -0.2367611930    1.3468961943
H        1.8421027668   -1.6503597090    2.1523178497
17   
Generated by ForceBalance from scan.xyz: Frame 17 of 24
C        3.0322979460   -0.4042507301    5.5362214789
C        3.0962345928    0.9991568105    3.8025466085
C        3.4223749030    0.8968421098    5.1449456714
C        0.5618517483    0.0570552926    1.9681788748
C       -0.4092089651    0.0772715633    3.1301487636
C        1.9524599207   -0.5599142566    2.1906064621
N        2.4984123132   -1.0656993366    4.5058718856
N        2.5555458288   -0.2038848865    3.4600981268
O        0.2628427451    0.4570355326    0.8565829904
Br       4.2419856088    2.2242970873    6.2150603815
H        3.1252205117   -0.8756771888    6.5058466568
H        3.2149759743    1.8085673650    3.0956573454
H       -0.9745007343    1.0122380766    3.1130954527
H       -1.1275984721   -0.7367034657    2.9762436234
H        0.0720162694   -0.0623387916    4.0985747735
H        2.5989016285   -0.2606280123    1.3630297850
H        1.8532681686   -1.6494050895    2.1832218870
17   
Generated by ForceBalance from scan.xyz: Frame 18 of 24
C        3.2146250558   -0.6123853418    5.6038841827
C        3.5469039250    0.8219684962    3.9281936598
C        3.7945244174    0.6351608183    5.2783034137
C        0.7698646069   -0.0608978320    2.1216474651
C        0.0276520118    0.3701639100    3.3666735362
C        2.2397961207   -0.5094032695    2.2325748232
N        2.6439994577   -1.1612213415    4.5283089057
N        2.8650491897   -0.2842260362    3.5184504217
O        0.2387464058   -0.1299573673    1.0273340359
Br       4.7342765165    1.8070767899    6.4279455528
H        3.1994850055   -1.1228573425    6.5580000188
H        3.8072597657    1.6299638145    3.2588959507
H       -0.7976832937    1.0239860282    3.0783142942
H       -0.3980109712   -0.5259206670    3.8336202682
H        0.6670682228    0.8568085098    4.1051625350
H        2.8105565849    0.0018388424    1.4538935612
H        2.2735280640   -1.5809519276    2.0202725351
17   
Generated by ForceBalance from scan.xyz: Frame 19 of 24
C        3.1760826766   -0.6279224654    5.6109748000
C        3.5488388025    0.8061272070    3.9445014132
C        3.7782300204    0.6119164169    5.2966490490
C        0.7786803888   -0.0523501047    2.1023383414
C        0.0417013860    0.3788092017    3.3478140330
C        2.2467127234   -0.5036919574    2.2257082277
N        2.6116572019   -1.1653852183    4.5265407296
N        2.8559962360   -0.2885338280    3.5218499341
O        0.2581118551   -0.1083495570    1.0023416041
Br       4.7212171160    1.7662902080    6.4614333021
H        3.1418642767   -1.1409792629    6.5632134812
H        3.8301754635    1.6116325781    3.2807050653
H       -0.9001808568    0.8502297495    3.0634743243
H       -0.1695668585   -0.5089829918    3.9548683928
H        0.6386774429    1.0540329629    3.9670258746
H        2.8278151795    0.0154097824    1.4600690621
H        2.2831124597   -1.5730791867    2.0031898390
17   
Generated by ForceBalance from scan.xyz: Frame 20 of 24
C        3.2738696913   -0.6192060682    5.5784887033
C        3.5777642947    0.7916171790    3.8779989194
C        3.8644438812    0.6146274912    5.2215574409
C        0.7873247227    0.0346656127    2.1117862570
C        0.0422781360    0.3572612360    3.3841307044
C        2.2119675648   -0.5377534351    2.2289815632
N        2.6602219766   -1.1695936201    4.5280478310
N        2.8645131705   -0.3070553670    3.5019758875
O        0.3094009864    0.1654521898    0.9986359787
Br       4.8637262126    1.7778487619    6.3294394395
H        3.2805404701   -1.1192343004    6.5381708517
H        3.8317511092    1.5868244323    3.1910263969
H       -0.9510361583    0.7351615920    3.1397139078
H       -0.0347746866   -0.5412987517    4.0057064378
H        0.5905199916    1.0969265529    3.9775341074
H        2.8169649237   -0.1223826590    1.4204736418
H        2.1475995011   -1.6193156461    2.0808502203
17   
Generated by ForceBalance from scan.xyz: Frame 21 of 24
C        4.1669154218   -1.3456416638    5.1911965773
C        4.3211574731    0.0990542243    3.4972961213
C        4.9298236320   -0.2679046406    4.6860674440
C        1.1088211342    0.3104308283    2.6135949475
C        0.7984333333    0.6231092831    4.0582500467
C        2.2374719065   -0.6945524750    2.3237766535
N        3.1519139194   -1.6282240445    4.3711431833
N        3.2662464786   -0.7500969249    3.3438847562
O        0.5050643621    0.7997186936    1.6752178832
Br       6.4778499126    0.5048084574    5.4511617637
H        4.3215433384   -1.9182382505    6.0963376113
H        4.5625642263    0.8676827531    2.7762687729
H       -0.1451582730    1.1661552820    4.1241146812
H        0.7746851501   -0.2903962559    4.6596517272
H        1.6019252706    1.2412978709    4.4760008652
H        2.6793572550   -0.4512360014    1.3555011415
H        1.7926972304   -1.6916930365    2.2577671727
17   
Generated by ForceBalance from scan.xyz: Frame 22 of 24
C        4.1509913746   -1.3666192456    5.2048902811
C        4.2767267562    0.1272136851    3.5532645373
C        4.8833637488   -0.2504367671    4.7395621692
C        1.1110673530    0.3013236710    2.5754708986
C        0.7790080552    0.6533754081    4.0080066009
C        2.2440016649   -0.7079446060    2.3219768167
N        3.1562964311   -1.6609709249    4.3639678712
N        3.2532009055   -0.7517612342    3.3619973313
O        0.5295938486    0.7828230722    1.6191070392
Br       6.3950014058    0.5548811431    5.5427459191
H        4.3127341024   -1.9578607171    6.0967416855
H        4.5012032744    0.9228616159    2.8565152528
H       -0.2581423145    0.9859240623    4.0715843440
H        0.9773066265   -0.1753726816    4.6915519085
H        1.4263130094    1.4826733286    4.3197001673
H        2.7043473161   -0.4768170843    1.3592170436
H        1.8006143692   -1.7059299192    2.2598993856
17   
Generated by ForceBalance from scan.xyz: Frame 23 of 24
C        4.7706380250   -1.7700640973    4.7179644608
C        4.7010644313   -0.2943974267    3.0465743054
C        5.5175462405   -0.7655108296    4.0613448114
C        1.5070810991    0.3852233561    2.7874929398
C        1.4456964401    0.7144295008    4.2646993885
C        2.3403397877   -0.8304969244    2.3509358639
N        3.5708550581   -1.9130147920    4.1489918687
N        3.5491529220   -1.0174753731    3.1305381585
O        0.9269651560    1.0428863627    1.9414798261
Br       7.2745812962   -0.1855507238    4.4559324678
H        5.0578884771   -2.3851997096    5.5606765896
H        4.8606801269    0.4644381208    2.2931502859
H        0.4239112167    1.0014569948    4.5240363782
H        1.7937748623   -0.1040516608    4.8967883395
H        2.0869985692    1.5837048386    4.4511804425
H        2.5836674746   -0.7231219051    1.2920079874
H        1.7346351150   -1.7318862892    2.4823056840
17   
Generated by ForceBalance from scan.xyz: Frame 24 of 24
C        4.0673581248   -1.2104458623    5.3050897555
C        4.1831806135    0.2536672604    3.6256301588
C        4.7647659860   -0.0722922458    4.8396821613
C        1.1292920766    0.3486763975    2.4776428092
C        0.5461905750    0.6033051302    3.8537787210
C        2.2418411040   -0.7028015612    2.3378968897
N        3.1160426299   -1.5662746161    4.4376045494
N        3.2071632051   -0.6746120008    3.4193965467
O        0.7292957179    0.9254291509    1.4815632475
Br       6.2092805516    0.8167835724    5.6774649957
H        4.2239056786   -1.7750634282    6.2149337707
H        4.3950473784    1.0440313218    2.9190045900
H       -0.5256649845    0.3855000839    3.8190116704
H        1.0156075952    0.0065256203    4.6363837616
H        0.6513001135    1.6664583793    4.0914090925
H        2.7400479090   -0.5532083246    1.3779202279
H        1.7861834372   -1.6974797828    2.3464442413
