30

C     -1.71114   -1.03979    6.64209
C      2.11999   -0.96879    0.02838
C     -1.83023   -1.51328    5.33069
C     -0.44801   -0.68126    7.12449
C      1.04595   -0.38964    0.72195
C      3.07221   -1.67336    0.74931
C     -0.70886   -1.62947    4.50729
C      0.67590   -0.77523    6.30196
C      0.92766   -0.53394    2.09682
C      2.98335   -1.83720    2.14730
C      0.55839   -1.24903    4.98351
C      1.87557   -1.27021    2.84676
C      4.09507   -2.61651    2.74837
C      5.17163   -3.39140    4.72086
N      1.73359   -1.38615    4.21885
O      4.95736   -3.19697    2.11064
O      4.10196   -2.63065    4.11897
H     -2.58755   -0.95635    7.27862
H      2.21236   -0.85780   -1.04773
H     -2.80236   -1.81366    4.94778
H     -0.33674   -0.31314    8.14123
H      0.30030    0.19317    0.18649
H      3.92315   -2.12538    0.25073
H     -0.81106   -2.03609    3.50665
H      1.65295   -0.47220    6.67117
H      0.10922   -0.05006    2.61690
H      5.01707   -3.30727    5.79676
H      6.13934   -2.97439    4.43496
H      5.11934   -4.43460    4.40313
H      2.54744   -1.73164    4.71081
