28

C      0.62481   -1.26123    4.01166
C      2.27245    0.31727    3.96564
C      1.70217   -0.80356    1.85976
C      0.77450   -1.52472    2.64755
C      2.46051    0.14234    2.59638
C      3.13481   -1.47661   -0.04246
C      0.75419   -1.10541   -0.43406
C      3.45003   -0.82993   -1.38768
C      1.10848   -0.42588   -1.75666
C      2.63663   -0.44082   -3.62640
N      1.35961   -0.36184    4.67038
N      1.87671   -0.94360    0.48846
N      2.33128   -1.00291   -2.31626
Cl    -0.17127   -2.84252    1.97642
Cl     3.61755    1.17945    1.78516
H     -0.10443   -1.82607    4.58834
H      2.86729    1.05364    4.50121
H      3.04688   -2.56666   -0.17107
H      3.94447   -1.28399    0.66208
H     -0.13451   -0.63793   -0.00458
H      0.53150   -2.16259   -0.62777
H      3.68185    0.23899   -1.22501
H      4.33794   -1.30745   -1.81676
H      0.28958   -0.58650   -2.46673
H      1.20892    0.66404   -1.59186
H      3.52825   -0.92572   -4.03683
H      2.82072    0.64987   -3.59651
H      1.80348   -0.62781   -4.31156
