34

C     -6.93043    0.45710    0.51498
C     -6.09571    0.40233   -0.63832
C     -6.65716   -0.31693    1.60987
C     -5.02215   -0.44194   -0.61955
C     -5.52220   -1.21417    1.65201
C     -2.27721   -1.35548    0.11797
C     -2.23593   -0.49607    2.49009
C     -0.50598    0.14635    0.87773
C     -1.13711   -0.79321    3.50931
C      0.55696   -0.16788    1.92786
C      1.06001   -0.16825    4.29055
C     -3.57535   -2.12218    0.40463
N     -4.73459   -1.21842    0.47297
N     -1.71296   -0.64279    1.13093
N      0.03454    0.05043    3.27711
O     -5.21525   -1.93050    2.61638
O     -1.80731   -1.39405   -1.02537
H     -7.79279    1.11977    0.52325
H     -6.29437    1.00342   -1.51793
H     -7.27562   -0.29704    2.50083
H     -4.33605   -0.54213   -1.45482
H     -3.08231   -1.15772    2.66282
H     -2.58252    0.53724    2.62386
H     -0.76272    1.21277    0.92430
H     -0.14951   -0.08792   -0.12451
H     -1.52562   -0.59297    4.51333
H     -0.87993   -1.86976    3.45805
H      0.90392   -1.21057    1.78942
H      1.41756    0.49154    1.77169
H      0.65024    0.04818    5.28227
H      1.90158    0.50965    4.11561
H      1.44751   -1.20459    4.29638
H     -3.55535   -2.68778    1.33461
H     -3.70774   -2.81212   -0.43017
