28

C     -2.08133   -1.37978   -0.02377
C     -4.49839   -2.84612    1.63777
C     -0.64178   -2.40694   -1.79094
C     -0.19990   -0.04001   -0.97627
C     -4.10955   -0.36725    2.12602
C     -5.89616   -3.76420   -0.14864
C     -0.66237   -1.45313   -0.58566
C     -3.47808   -1.76464    2.05739
N     -4.94237   -2.78829    0.35939
N     -2.23360   -1.78692    1.26573
O     -3.02333   -0.97300   -0.71957
O     -4.89364   -3.67802    2.45919
H     -1.32482   -2.04820   -2.56574
H      0.36677   -2.46200   -2.21332
H     -0.94844   -3.41924   -1.50693
H     -0.87535    0.38277   -1.72493
H      0.81020   -0.07513   -1.39714
H     -0.18604    0.63101   -0.11090
H     -4.41315   -0.01408    1.14025
H     -4.98866   -0.40190    2.77635
H     -3.39375    0.34582    2.54706
H     -5.48257   -4.77799   -0.11568
H     -6.13905   -3.50875   -1.18200
H     -6.81187   -3.75538    0.44978
H      0.01451   -1.84364    0.18514
H     -3.18546   -2.06372    3.06493
H     -4.52079   -2.10146   -0.26409
H     -1.41967   -2.17554    1.72206
