28

C     -0.35550   -2.60116    1.63757
C     -3.84125   -3.05501    1.33584
C      1.86473   -1.45800    1.66368
C      1.53806   -3.60205    0.34063
C     -3.35590   -0.69231    2.09209
C     -4.24147   -4.98397   -0.14819
C      0.89211   -2.28948    0.81060
C     -2.78110   -2.10093    1.92150
N     -3.39952   -3.92189    0.38314
N     -1.53254   -2.07162    1.16065
O     -0.30994   -3.29506    2.65146
O     -5.00465   -3.01628    1.73613
H      2.14452   -2.01371    2.56284
H      2.77281   -1.23389    1.09452
H      1.41532   -0.50911    1.97563
H      1.79892   -4.22201    1.20247
H      2.44875   -3.39509   -0.23080
H      0.86003   -4.17740   -0.29964
H     -3.55857   -0.22950    1.11879
H     -4.29806   -0.74264    2.63951
H     -2.65002   -0.06183    2.64038
H     -4.08816   -5.92814    0.38837
H     -4.02395   -5.13623   -1.20935
H     -5.28347   -4.68436   -0.03164
H      0.60648   -1.70158   -0.07169
H     -2.52381   -2.51492    2.90077
H     -2.40395   -3.94301    0.20693
H     -1.47650   -1.41798    0.38930
