24

C      1.71151   -1.12858   -0.39493
C      0.62732   -0.51183    0.23158
C      2.70330   -1.75409    0.36140
C      1.52359   -1.13186    2.41454
C      0.53170   -0.51317    1.62958
C      2.59581   -1.75479    1.75431
C      1.44560   -1.06976    3.92205
C      1.61822   -2.36421    6.00126
C      4.54802   -1.56846    3.08850
N      1.50876   -2.28250    4.55120
O      1.32671   -0.00632    4.52767
O     -0.53418    0.04581    2.27624
O      3.56609   -2.42631    2.48337
H      1.77737   -1.12392   -1.47950
H     -0.15055   -0.03519   -0.36237
H      3.55156   -2.24793   -0.10199
H      2.62739   -2.11326    6.35359
H      1.36831   -3.37848    6.32159
H      0.91637   -1.66105    6.45182
H      5.24597   -2.22374    3.61309
H      4.08823   -0.87360    3.79956
H      5.08241   -0.99913    2.31870
H      1.84229   -3.06355    4.00046
H     -1.13648    0.42595    1.61740
