27

C      1.70645   -0.94450    0.98169
C      1.93864   -5.92713    5.21468
C      0.49670   -0.24182    0.99384
C      1.24117   -6.42541    4.10977
C      2.09109   -1.63310    2.12929
C      2.09072   -4.55236    5.38088
C     -0.26962   -0.26431    2.16036
C      0.72296   -5.49923    3.20525
C      1.24207   -1.59453    3.24019
C      1.52101   -3.70789    4.40904
C      1.95165   -1.54831    5.58911
C      2.01959   -0.04111    5.42313
N      0.08899   -0.93101    3.26799
N      0.85463   -4.17556    3.34659
N      1.62844   -2.28683    4.44444
O      2.18657   -2.07557    6.67040
H      2.33776   -0.95195    0.09708
H      2.36785   -6.60386    5.94919
H      0.15421    0.31082    0.12389
H      1.10314   -7.49093    3.95266
H      3.01648   -2.19826    2.17437
H      2.61376   -4.14088    6.23046
H     -1.21556    0.27194    2.21252
H      0.17169   -5.82825    2.32546
H      1.01116    0.37339    5.34929
H      2.56387    0.25500    4.52240
H      2.51478    0.36079    6.30719
