37

C     -1.06458   -0.91944    2.22985
C     -1.23365   -1.04174   -2.38175
C      0.16697   -1.15823   -3.02393
C     -1.19392    2.05454    0.10707
C     -1.31786   -1.05586   -0.84513
C     -0.12979    1.23146   -0.62312
C     -1.14623    1.48201    1.52463
C      1.25961   -1.84633   -2.19753
C      1.07789   -0.90582    0.06226
C     -0.28897   -0.20152   -0.06647
C     -1.60589   -0.46446    3.57980
C      3.22411   -1.37087   -0.87531
N     -0.82138    0.06259    1.31180
N      1.85278   -0.96344   -1.18056
O     -0.86955   -2.11871    2.00514
H     -1.71550   -0.13566   -2.76824
H     -1.85740   -1.87260   -2.73190
H      0.06472   -1.69715   -3.97350
H      0.55333   -0.16571   -3.27806
H     -0.99727    3.12995    0.08691
H     -2.18200    1.88268   -0.33323
H     -2.32305   -0.72209   -0.56349
H     -1.23421   -2.07900   -0.47248
H     -0.22701    1.27081   -1.70656
H      0.87123    1.60188   -0.37839
H     -0.36483    1.97712    2.11873
H     -2.09418    1.59837    2.05496
H      0.88903   -2.78768   -1.75052
H      2.06271   -2.12673   -2.88622
H      1.66407   -0.33015    0.78714
H      0.92256   -1.90676    0.49040
H     -2.65221   -0.15104    3.49159
H     -1.04147    0.37530    3.99639
H     -1.55462   -1.31322    4.26196
H      3.67084   -0.66257   -0.17015
H      3.82612   -1.35941   -1.78929
H      3.29198   -2.38138   -0.42975
