21

C      1.98183   -4.96433   -2.82301
C      2.07240   -3.54674   -2.93861
C      1.19708   -5.19997   -1.72269
C      1.33404   -3.01090   -1.89735
C     -0.86303   -0.88528    1.21528
C      0.37156   -1.13086   -0.52631
C      0.23318    0.34223   -0.31911
C      1.09762   -1.64732   -1.55330
C     -1.01449    1.65084    1.44882
N     -0.34139   -1.81603    0.47252
N     -0.57818    0.41542    0.82499
O      0.68226    1.29682   -0.94396
O      0.79749   -4.03474   -1.15211
H      2.43255   -5.71183   -3.46207
H      2.60890   -2.97864   -3.68752
H      0.84866   -6.10295   -1.24093
H     -1.48268   -1.07720    2.08686
H      1.56756   -0.91764   -2.20920
H     -0.65558    1.71842    2.48075
H     -2.10605    1.73294    1.43862
H     -0.59067    2.47386    0.87019
