28

C      2.45892   -1.41452   -1.50258
C      1.31467   -1.08992   -0.75295
C      2.70964   -2.73996   -1.82568
C      0.43533   -2.08024   -0.33380
C      0.09503   -5.73554   -0.58576
C      1.83753   -3.76435   -1.41533
C      1.18357   -6.14584   -1.31169
C      0.68818   -3.42894   -0.66108
C      2.14607   -5.16396   -1.78372
C      1.27271   -7.62679   -1.55445
C     -1.37402   -4.13599    0.52664
C      2.54570   -9.44794   -2.57255
N     -0.17650   -4.44772   -0.25460
N      2.34491   -8.04089   -2.26914
O      3.16656   -5.43729   -2.45071
O      0.40884   -8.40359   -1.11878
H      3.13918   -0.63130   -1.82464
H      1.10937   -0.05443   -0.49476
H      3.58140   -3.03232   -2.40258
H     -0.43945   -1.80357    0.24284
H     -0.60732   -6.49019   -0.24643
H     -2.03885   -3.47113   -0.03276
H     -1.10477   -3.66109    1.47477
H     -1.90518   -5.06284    0.73899
H      2.61507  -10.04011   -1.65430
H      3.47300   -9.55372   -3.13927
H      1.71457   -9.84474   -3.16500
H      2.99629   -7.32152   -2.58314
