9    
Generated by ForceBalance from scan.xyz: Frame 1 of 24
C       -0.0346971516   -0.4386508441   -0.2696684828
C        0.0700348826    0.9044909241   -0.9372168173
O        0.6330772844   -1.4280955263   -0.5103711819
O       -0.7988233420   -1.5575962456    1.6132636234
O       -0.9340911170   -0.4058965341    0.7507172368
H        0.2100837347    0.7667919724   -2.0107090896
H       -0.8049670447    1.5256391672   -0.7399201210
H        0.9561795417    1.4040136864   -0.5335705979
H       -0.2052746217   -2.1341434561    1.0695764101
9    
Generated by ForceBalance from scan.xyz: Frame 2 of 24
C       -0.0716253505   -0.4620656722   -0.3519268566
C        0.0921939313    0.9043457444   -0.9570029782
O        0.5549071098   -1.4642020985   -0.6349866026
O       -0.5958006118   -1.4401012347    1.6891603319
O       -0.9316880289   -0.4251880520    0.7122897313
H        0.3644354844    0.8161866977   -2.0094287882
H       -0.8057512320    1.5138708316   -0.8383195363
H        0.9104136424    1.3905004956   -0.4158708220
H       -0.1759849499   -2.1283918683    1.1195618080
9    
Generated by ForceBalance from scan.xyz: Frame 3 of 24
C       -0.1047077714   -0.4845368666   -0.4084750495
C        0.0893946432    0.9089973954   -0.9364973006
O        0.4858179300   -1.4829132098   -0.7541468488
O       -0.4127147945   -1.3260490018    1.7353968706
O       -0.9563949327   -0.4864670026    0.6853252580
H        0.4632938602    0.8775091996   -1.9602188462
H       -0.8277120088    1.4993768271   -0.8748994151
H        0.8348064467    1.3824101412   -0.2885518941
H       -0.2504234901   -2.1702192249    1.2597670743
9    
Generated by ForceBalance from scan.xyz: Frame 4 of 24
C       -0.1280574314   -0.5150618809   -0.4927987166
C        0.1005423706    0.9049801694   -0.9234618402
O        0.4086713530   -1.5033493218   -0.9279852716
O       -0.2539623824   -1.2187881313    1.7082262035
O       -0.9789424979   -0.5775874508    0.6256661023
H        0.5608812958    0.9356290905   -1.9111856917
H       -0.8275294109    1.4823639770   -0.9076838564
H        0.7739717719    1.3515947728   -0.1835986640
H       -0.2843284849   -2.1613206692    1.4430987579
9    
Generated by ForceBalance from scan.xyz: Frame 5 of 24
C       -0.1728788662   -0.5552397610   -0.5552221341
C        0.1148020503    0.8791627243   -0.8836498436
O        0.2752236083   -1.5338762358   -1.0930542261
O       -0.1722352599   -1.1027859975    1.6717244683
O       -1.0302889973   -0.6777939157    0.5742782318
H        0.6725048762    0.9558656816   -1.8171137165
H       -0.8140420333    1.4543290421   -0.9381042101
H        0.7000433796    1.2945805496   -0.0559860587
H       -0.1903253821   -2.0753434299    1.5635293358
9    
Generated by ForceBalance from scan.xyz: Frame 6 of 24
C       -0.2275065805   -0.5913429200   -0.5989227350
C        0.1205028952    0.8504528823   -0.8176249955
O        0.0919850916   -1.5346510039   -1.2716728847
O       -0.1303901336   -0.9811010585    1.6412633468
O       -1.0705050417   -0.7825248439    0.5404681555
H        0.7714456873    0.9612067973   -1.6849473844
H       -0.8012467557    1.4241905545   -0.9578374692
H        0.6062825710    1.2397319198    0.0823145460
H       -0.0753589853   -1.9575665899    1.6542664111
9    
Generated by ForceBalance from scan.xyz: Frame 7 of 24
C       -0.2418596705   -0.6327632231   -0.6695256414
C        0.1462541774    0.8132097702   -0.7876578925
O       -0.0531576341   -1.5030888767   -1.4773836700
O       -0.1278647210   -0.8738612333    1.6074853069
O       -1.0482963508   -0.9106854066    0.4695068745
H        0.8713039272    0.9478661182   -1.5904577510
H       -0.7616931933    1.3838909849   -1.0110180855
H        0.5411311190    1.1845078653    0.1607863092
H        0.0106789030   -1.8322798552    1.7390878167
9    
Generated by ForceBalance from scan.xyz: Frame 8 of 24
C       -0.2817102494   -0.6364570426   -0.6634521923
C        0.1396150857    0.8070038734   -0.7120529193
O       -0.2064537233   -1.4348408291   -1.5615492877
O       -0.2106838161   -0.7361061095    1.6594699884
O       -1.0319283717   -0.9967832665    0.4746630535
H        0.8721427310    0.9538683241   -1.5058820264
H       -0.7577253607    1.3944801818   -0.9348769025
H        0.5315857555    1.1468658013    0.2476424480
H       -0.0079800474   -1.6570454476    1.9137054526
9    
Generated by ForceBalance from scan.xyz: Frame 9 of 24
C       -0.2477137334   -0.6673658690   -0.7214315127
C        0.1419649385    0.7868640847   -0.6955692410
O       -0.1767219930   -1.4095908310   -1.6687393226
O       -0.3433691914   -0.6452010575    1.6243859132
O       -0.9605703879   -1.1331505284    0.3886178255
H        0.6977426344    1.0212806902   -1.6029583088
H       -0.7776159969    1.3794406380   -0.6576365212
H        0.7289035078    1.0357892736    0.1900467333
H       -0.0883593984   -1.5036190697    2.0131202846
9    
Generated by ForceBalance from scan.xyz: Frame 10 of 24
C       -0.2101114900   -0.7200842228   -0.7488207035
C        0.1409488446    0.7435676639   -0.6892544131
O       -0.1057779631   -1.4450803035   -1.7075667272
O       -0.4932031718   -0.5428878861    1.5761176523
O       -0.8729875621   -1.2516764183    0.3526963329
H        0.4375233901    1.0609850045   -1.6885156091
H       -0.7213668526    1.3172881961   -0.3405366657
H        0.9567408080    0.9244119034    0.0150099786
H       -0.2072745404   -1.3088200412    2.1091948455
9    
Generated by ForceBalance from scan.xyz: Frame 11 of 24
C       -0.2849417428   -0.6976370424   -0.7540904597
C        0.1020482654    0.7534293218   -0.6503463725
O       -0.2669820734   -1.3791673605   -1.7504535279
O       -0.5637785346   -0.5000283909    1.5758125288
O       -0.8089226956   -1.3033029688    0.3778673196
H        0.3570154650    1.1032968968   -1.6502051628
H       -0.7249417342    1.3368696713   -0.2380283867
H        0.9544785287    0.8828616609    0.0210493540
H       -0.2474212996   -1.2078343526    2.1686343239
9    
Generated by ForceBalance from scan.xyz: Frame 12 of 24
C       -0.2410117967   -0.7202292649   -0.7350877401
C        0.1325199334    0.7325233272   -0.6125271454
O       -0.2427617321   -1.3808431053   -1.7459911423
O       -0.6217991149   -0.5031349033    1.5785932269
O       -0.6407247652   -1.3848466044    0.4118489498
H        0.3981037148    1.0918509359   -1.6062326708
H       -0.7015984350    1.3122196224   -0.2093294087
H        0.9733552354    0.8575131724    0.0741433705
H       -0.2634137271   -1.1294796487    2.2356241316
9    
Generated by ForceBalance from scan.xyz: Frame 13 of 24
C       -0.2500983637   -0.7243880881   -0.7620877530
C        0.1409974654    0.7229730529   -0.6231637565
O       -0.3007491382   -1.3598347678   -1.7874100695
O       -0.7075472999   -0.5401667945    1.5362863090
O       -0.5180593246   -1.4355697386    0.3967853603
H        0.4263635817    1.0852730012   -1.6103838104
H       -0.6900248419    1.3162315937   -0.2333735712
H        0.9707820329    0.8286690095    0.0797941553
H       -0.2285117151   -1.0490951435    2.2174823882
9    
Generated by ForceBalance from scan.xyz: Frame 14 of 24
C       -0.2295990945   -0.7322089220   -0.7610411520
C        0.1657500847    0.7149568839   -0.6148018974
O       -0.3075607840   -1.3514560385   -1.7937734230
O       -0.8175585097   -0.6117728882    1.5028863395
O       -0.3830793373   -1.4718853993    0.4049386972
H        0.4584113822    1.0814567354   -1.5984029415
H       -0.6623770634    1.3144860293   -0.2290167299
H        0.9937000008    0.8093340091    0.0923824083
H       -0.2217374664   -0.9267817432    2.2090822113
9    
Generated by ForceBalance from scan.xyz: Frame 15 of 24
C        0.6389804232   -0.0773896332    0.2723929982
C        0.0015276705    0.6934398010   -0.8531198021
O        1.8100843250   -0.0876250700    0.5582966578
O       -1.3450726821   -1.3117463477    0.5012982676
O       -0.2380401344   -0.6524383997    1.1983970259
H       -0.7046846958    0.0819396558   -1.4171304496
H       -0.5603623108    1.5240039891   -0.4141917487
H        0.7835942312    1.0784480202   -1.5068288934
H       -1.1786737630   -2.2291352415    0.7906681847
9    
Generated by ForceBalance from scan.xyz: Frame 16 of 24
C        0.5667790635   -0.0719026604    0.2875460028
C        0.0046816342    0.7172416691   -0.8634337158
O        1.7258012776   -0.1491752186    0.6043348081
O       -1.2950208407   -1.4576315987    0.4437459401
O       -0.3952230657   -0.5731771574    1.1882370074
H       -0.8584022480    0.2220237829   -1.3106560737
H       -0.3323572879    1.6775208192   -0.4581343263
H        0.7813857957    0.8935252813   -1.6077356287
H       -0.9996420711   -2.3169185936    0.8018395451
9    
Generated by ForceBalance from scan.xyz: Frame 17 of 24
C        0.5803273811   -0.0857083486    0.2519861921
C        0.0661352397    0.7599214505   -0.8775898197
O        1.7292597668   -0.3171191017    0.5205256122
O       -1.1624728345   -1.5622997771    0.4475030281
O       -0.4376253202   -0.5044017584    1.1538975582
H       -0.8023487774    0.2906122871   -1.3453727784
H       -0.2649270357    1.7144395722   -0.4542363238
H        0.8543704379    0.9366458248   -1.6095535211
H       -0.7633843372   -2.3473701688    0.8711452112
9    
Generated by ForceBalance from scan.xyz: Frame 18 of 24
C        0.5049860492   -0.1039683524    0.2220419336
C        0.0659917375    0.8142039985   -0.8788486471
O        1.6115686800   -0.5235637603    0.4315951578
O       -1.1383121631   -1.6517860103    0.5111926921
O       -0.5654991007   -0.4465480541    1.1064113521
H       -0.7475198753    0.3389712702   -1.4354131128
H       -0.3392123050    1.7316289557   -0.4399886723
H        0.9004005764    1.0470567643   -1.5405000925
H       -0.6534586900   -2.3422709504    1.0059958306
9    
Generated by ForceBalance from scan.xyz: Frame 19 of 24
C        0.4650442137   -0.1307884292    0.1597306381
C        0.1051988371    0.8727953068   -0.8945305324
O        1.5103065599   -0.7120872470    0.2912865063
O       -1.1144632723   -1.7297622733    0.6152932488
O       -0.6347936753   -0.4146807347    1.0174628104
H       -0.6354009270    0.4060389938   -1.5531330715
H       -0.3737750404    1.7472836783   -0.4446560240
H        0.9871726925    1.1652836851   -1.4644807790
H       -0.5498189195   -2.3145949721    1.1603151576
9    
Generated by ForceBalance from scan.xyz: Frame 20 of 24
C        0.4050025795   -0.1603831239    0.1046028356
C        0.1218425756    0.9191757817   -0.8996983162
O        1.3927309660   -0.8485838662    0.1749565421
O       -1.1087651103   -1.7875976734    0.7497953152
O       -0.7135728321   -0.4010550884    0.9229818608
H       -0.5383655765    0.4784319843   -1.6548402506
H       -0.4163566224    1.7559598157   -0.4468492246
H        1.0463618967    1.2587005445   -1.3670703160
H       -0.4317615681   -2.2594742712    1.2776029798
9    
Generated by ForceBalance from scan.xyz: Frame 21 of 24
C        0.3259672851   -0.1979825627    0.0741534566
C        0.1278010875    0.9345747371   -0.8935578680
O        1.2582596448   -0.9689534036    0.1115708955
O       -1.1195829698   -1.7964308281    0.9427990685
O       -0.8022043385   -0.3839088540    0.8580118794
H       -0.4506258867    0.5271517020   -1.7296322704
H       -0.4520202046    1.7493642065   -0.4538395046
H        1.0904574964    1.2948500330   -1.2572780056
H       -0.2663228670   -2.1808502691    1.2417212919
9    
Generated by ForceBalance from scan.xyz: Frame 22 of 24
C        0.2764935220   -0.2304420893    0.0381558207
C        0.1478510060    0.9414011839   -0.8947259574
O        1.1679650514   -1.0562921729    0.0520611212
O       -1.0723876735   -1.7572639512    1.1547061460
O       -0.8484092748   -0.3698116793    0.8054853947
H       -0.3292796897    0.5656785499   -1.8056775347
H       -0.4838576732    1.7280621123   -0.4775678859
H        1.1359490333    1.3295718707   -1.1446727066
H       -0.1512098300   -2.1119545988    1.1471158428
9    
Generated by ForceBalance from scan.xyz: Frame 23 of 24
C        0.2061969084   -0.2783718675    0.0002149041
C        0.1256051035    0.9414877096   -0.8750375461
O        1.0669164755   -1.1394326319   -0.0242281255
O       -1.0040255776   -1.6941911329    1.3830300721
O       -0.8904590816   -0.3769003280    0.7994690808
H       -0.2263280610    0.6172445573   -1.8592707609
H       -0.5711821389    1.6812040022   -0.4779395322
H        1.1213746520    1.3731770715   -0.9892638518
H       -0.1144469355   -2.0737567085    1.1711754730
9    
Generated by ForceBalance from scan.xyz: Frame 24 of 24
C        0.1104521465   -0.3675103784   -0.1522258922
C        0.1034566859    0.9286067583   -0.9146492122
O        0.8859451753   -1.2962256603   -0.2957340537
O       -0.8948863298   -1.6407355563    1.5030683341
O       -0.8915366976   -0.4003125684    0.7644124646
H       -0.0052718729    0.7054062921   -1.9790996699
H       -0.7026885449    1.5865715862   -0.5885891041
H        1.0680069346    1.4221648597   -0.7702837681
H       -0.1245400236   -2.1082422264    1.0905780958
