22   
Generated by ForceBalance from scan.xyz: Frame 1 of 24
C       -0.6778583853    0.6826351496   -1.5281107624
C        1.2657353177    0.2101644395   -0.0140671757
C        0.5282686359    1.3359240267   -0.7672897587
C        0.0878991996    2.4540927922    0.1852590891
C       -3.1375233743   -0.1364488028    0.1426231553
N       -1.0588560302   -0.6192408034   -0.9360605815
N       -1.7090830257   -0.3935114321    0.3751453124
O        1.0770723822   -1.6821184042   -1.9090190453
O        0.3357050468   -2.3362708029    0.4450953680
S        0.4944975599   -1.3335221029   -0.6127125955
H       -1.5509088189    1.3357147108   -1.5224811447
H       -0.4144623010    0.4780446479   -2.5670703037
H        2.3332576214    0.1477681105   -0.2276229624
H        1.0916520658    0.2400687821    1.0621061348
H        1.2015086872    1.7547270291   -1.5205981001
H       -0.6032564724    2.0621072261    0.9363449982
H       -0.4181663759    3.2528050388   -0.3681005907
H        0.9478988848    2.8992938580    0.6973238861
H       -3.2813489414    0.8687487432   -0.2628847406
H       -3.6377862488   -0.1745107845    1.1145288903
H       -3.5976592067   -0.8642606872   -0.5391907804
H       -1.6333985489   -1.3008176361    0.8378652855
22   
Generated by ForceBalance from scan.xyz: Frame 2 of 24
C       -0.6973148530    0.7663901578   -1.4990246915
C        1.2620893993    0.1859768224   -0.0400634774
C        0.5652623522    1.3505188713   -0.7729969802
C        0.2094159768    2.4875222739    0.1925390141
C       -3.2598201266   -0.3084155001    0.1006124971
N       -1.1183369115   -0.5217329401   -0.9083186148
N       -1.8136982970   -0.2795751948    0.3715345102
O        0.9308749379   -1.7235683200   -1.8956361854
O        0.1896238098   -2.2855677669    0.4851372655
S        0.3879899940   -1.3172920750   -0.5994602095
H       -1.5409878931    1.4548759412   -1.4391233051
H       -0.4829282108    0.5726141077   -2.5516119587
H        2.3172665010    0.0650453362   -0.2872432553
H        1.1292166689    0.2298967566    1.0421015403
H        1.2404161880    1.7338121442   -1.5431706636
H       -0.4948327512    2.1341446891    0.9508008809
H       -0.2564674111    3.3182604395   -0.3485115853
H        1.1025876408    2.8764296386    0.6936895090
H       -3.5449477217    0.5679403212   -0.4884224704
H       -3.7763411707   -0.2473248730    1.0633657295
H       -3.5764987361   -1.2121292854   -0.4361189120
H       -1.5992040943   -1.1026424054    0.9383402178
22   
Generated by ForceBalance from scan.xyz: Frame 3 of 24
C       -0.6325919709    0.8309377659   -1.4876041787
C        1.3510278337    0.1857074184   -0.1041354718
C        0.6231106589    1.3897184937   -0.7405930330
C        0.2552297031    2.4455444087    0.3099197757
C       -3.2967225652   -0.4587348310    0.0582600858
N       -1.1125179700   -0.4202452055   -0.8676073190
N       -1.8872693096   -0.1463948591    0.3451515548
O        0.8331031317   -1.8406220396   -1.7875450203
O        0.1060812451   -2.1413959327    0.6456322574
S        0.3430343335   -1.2867862645   -0.5252517185
H       -1.4556975467    1.5459879649   -1.4751715461
H       -0.3889823173    0.5952593590   -2.5261130411
H        2.3518448471    0.0071894093   -0.4982557909
H        1.3813157873    0.2345984148    0.9855269626
H        1.2802729741    1.8445352559   -1.4875749523
H       -0.4357483982    2.0289642144    1.0475152221
H       -0.2344778683    3.3026374358   -0.1646189741
H        1.1478150126    2.8146014287    0.8268430155
H       -3.6843682079    0.2513867404   -0.6772438573
H       -3.8601255164   -0.3279350192    0.9876088878
H       -3.4418294551   -1.4773468287   -0.3241818631
H       -1.5607259783   -0.8161553440    1.0444351103
22   
Generated by ForceBalance from scan.xyz: Frame 4 of 24
C       -0.8261305739    1.1141182172   -0.2691167417
C        1.2651823436    0.1671421641    0.5073344732
C        0.6906562082    1.1986667474   -0.4685881544
C        1.2440755845    2.6048965212   -0.2373394512
C       -3.4290714898   -1.0983046992   -0.6668740943
N       -1.1988358353   -0.3164718442   -0.3335141641
N       -2.4638589972   -0.5552767346    0.2921315225
O        0.6139588973   -2.2229319323   -0.5575582442
O       -0.3402552705   -1.6777232611    1.7285275181
S        0.1094820593   -1.2330456784    0.3965532209
H       -1.1189609011    1.5402323183    0.7005587133
H       -1.3664892956    1.6450939745   -1.0573212158
H        2.2574277586   -0.2053712230    0.2510730337
H        1.2381077644    0.5187501969    1.5416432101
H        0.9254332362    0.8768713667   -1.4889272218
H        1.0293974716    2.9511944375    0.7795884566
H        0.7944312893    3.3157384719   -0.9383912410
H        2.3285007118    2.6316787354   -0.3832739845
H       -3.6148800233   -0.3554655797   -1.4468479769
H       -4.3672120490   -1.2732742061   -0.1305721863
H       -3.1044657929   -2.0340034506   -1.1431282030
H       -2.3351457620   -1.1535187786    1.1098584905
22   
Generated by ForceBalance from scan.xyz: Frame 5 of 24
C       -0.8246702517    1.1842872620   -0.1450520301
C        1.2813949140    0.1483169252    0.5001343957
C        0.6839329562    1.2316058142   -0.4071663948
C        1.2926426770    2.6106909141   -0.1518918175
C       -3.3427610065   -1.2938130789   -0.5798790677
N       -1.2293256276   -0.2319753850   -0.2588245454
N       -2.5102937339   -0.4704272509    0.3015946043
O        0.4486285082   -2.2805120204   -0.3818057511
O       -0.3982749353   -1.4942795878    1.8781875263
S        0.0419655088   -1.1866137781    0.5036641438
H       -1.0630943887    1.5841710965    0.8516684601
H       -1.3852025871    1.7558350093   -0.8884784356
H        2.2222390756   -0.2747666216    0.1467262297
H        1.3756711145    0.4842599271    1.5353779713
H        0.8565488532    0.9430629267   -1.4494228516
H        1.1319964939    2.9266597332    0.8847028953
H        0.8385441085    3.3603474368   -0.8082034012
H        2.3706013724    2.6081758311   -0.3421601490
H       -3.4901005312   -0.7627598236   -1.5230866237
H       -4.3162350845   -1.4200426324   -0.0957502495
H       -2.9183685298   -2.2839879724   -0.7956123383
H       -2.4164905700   -0.8668118336    1.2397074559
22   
Generated by ForceBalance from scan.xyz: Frame 6 of 24
C       -0.8518671872    1.2538548919   -0.2657101118
C        1.2024892574    0.0383790064    0.2445012850
C        0.6549010201    1.2358904493   -0.5450317568
C        1.3486007952    2.5468938959   -0.1747247467
C       -3.3820330468   -1.3124390139   -0.7807586521
N       -1.3382277829   -0.1159582597   -0.5115470026
N       -2.6325176080   -0.3320321563    0.0139562020
O        0.2013353646   -2.2623877875   -0.8033016188
O       -0.5709960591   -1.5847975468    1.5219052572
S       -0.1218453803   -1.2122960873    0.1661215881
H       -1.0520297951    1.5706100945    0.7698565899
H       -1.3847452618    1.9274145925   -0.9404065111
H        2.1067378449   -0.4055819277   -0.1731830107
H        1.3424371690    0.2715199302    1.3025729956
H        0.7951587225    1.0368723613   -1.6127603019
H        1.2202631540    2.7741130275    0.8893205467
H        0.9329850206    3.3799762575   -0.7510706106
H        2.4220555752    2.4981268857   -0.3832765616
H       -3.4736982826   -0.9372177857   -1.8021501149
H       -4.3817392859   -1.3994564829   -0.3445521507
H       -2.9178713521   -2.3072916945   -0.8100116149
H       -2.5635616591   -0.6276104679    0.9927874033
22   
Generated by ForceBalance from scan.xyz: Frame 7 of 24
C       -0.8484132384    1.3037585055   -0.2920228402
C        1.1770917672    0.0190326393    0.1860949347
C        0.6607563848    1.2583884888   -0.5595804941
C        1.3813644134    2.5378136737   -0.1340376183
C       -3.3110056186   -1.4083603675   -0.7260717600
N       -1.3632985593   -0.0407141058   -0.5894767297
N       -2.6715004001   -0.2430488000   -0.1008289358
O        0.1275860458   -2.2116796978   -0.9625001482
O       -0.6353614081   -1.6154915432    1.3915872981
S       -0.1742566420   -1.1992038779    0.0527998946
H       -1.0465371918    1.5907551749    0.7540054474
H       -1.3579530779    2.0151197693   -0.9456784846
H        2.0765061217   -0.4253995323   -0.2416347385
H        1.3132267150    0.2088572082    1.2533878720
H        0.8035930260    1.0981428874   -1.6333590882
H        1.2514609163    2.7260075890    0.9374410032
H        0.9888012400    3.4022391519   -0.6795820841
H        2.4547407589    2.4724065604   -0.3381614230
H       -3.3428929251   -1.2512959930   -1.8062681757
H       -4.3341313321   -1.4686280238   -0.3439132806
H       -2.7997827581   -2.3575667428   -0.5207642499
H       -2.6354078616   -0.3822165142    0.9155345782
22   
Generated by ForceBalance from scan.xyz: Frame 8 of 24
C       -0.8597469397    1.3668866069   -0.2378987119
C        1.1602408400    0.0395247328    0.1805971403
C        0.6491080772    1.3134600768   -0.5110606148
C        1.3860752476    2.5674929044   -0.0402272524
C       -3.2495623427   -1.4599398900   -0.5880226466
N       -1.3755149596    0.0344040564   -0.5601122165
N       -2.7216674116   -0.1523692727   -0.1686019518
O        0.0242870123   -2.1843001698   -0.9147431940
O       -0.6617639113   -1.5294459395    1.4464753622
S       -0.2251807629   -1.1468725854    0.0890935891
H       -1.0545406024    1.6378476363    0.8146245672
H       -1.3644014753    2.0930010662   -0.8790837658
H        2.0290365582   -0.4147140199   -0.2972617983
H        1.3483111872    0.1967365360    1.2451650065
H        0.7822386914    1.1944838572   -1.5911003465
H        1.2662616107    2.7137884158    1.0389246050
H        0.9989408746    3.4572850695   -0.5476660528
H        2.4571549226    2.4992659074   -0.2551579467
H       -3.1550299465   -1.5445522654   -1.6728399681
H       -4.3094683553   -1.4829333768   -0.3198814692
H       -2.7475089237   -2.3141597293   -0.1194108644
H       -2.7709675729   -0.1095959964    0.8573157682
22   
Generated by ForceBalance from scan.xyz: Frame 9 of 24
C       -0.8982802224    1.0135804981   -1.2414008646
C        0.6278668965    0.6410720111    0.7390174297
C        0.5612629224    1.1732911544   -0.7175634934
C        1.0318981399    2.6297705126   -0.7780771959
C       -3.5961093478   -0.6824722584   -0.6060223324
N       -1.7402718608    0.8386075568   -0.0524642165
N       -3.1213679868    0.6776575520   -0.2841103899
O       -0.7219924774   -1.6154078909    0.3145013848
O       -1.4926754724   -0.2272721709    2.2963798637
S       -0.9010317787   -0.2992483235    0.9558241412
H       -1.2400770331    1.9125936518   -1.7575568137
H       -0.9763579339    0.1615039737   -1.9290655506
H        1.4646983236   -0.0338571149    0.9212554420
H        0.6167017328    1.4408440299    1.4813492431
H        1.2151862192    0.5562432394   -1.3380070526
H        0.3553353862    3.2741213732   -0.2061334707
H        1.0511910284    2.9885510316   -1.8123517797
H        2.0400740103    2.7398409902   -0.3642095364
H       -3.0737754902   -1.0518321686   -1.4911538822
H       -4.6612404595   -0.6038811235   -0.8422821249
H       -3.4589470875   -1.4068465350    0.2050498961
H       -3.5901534078    1.0279068911    0.5485763166
22   
Generated by ForceBalance from scan.xyz: Frame 10 of 24
C       -0.8716329536    1.0518645966   -1.2771238788
C        0.6279045104    0.6161173785    0.7009974169
C        0.5826185958    1.1906387883   -0.7382721209
C        1.0623732369    2.6455116921   -0.7518465534
C       -3.5993681785   -0.7261931690   -0.5220571563
N       -1.7372580390    0.8492126131   -0.1020735495
N       -3.1088503419    0.6615908810   -0.4149155411
O       -0.7250500515   -1.6132212310    0.1643903167
O       -1.4875806674   -0.3187842947    2.2115977230
S       -0.9027246318   -0.3292187180    0.8668573534
H       -1.2041734373    1.9653709294   -1.7728428057
H       -0.9540954893    0.2178606627   -1.9853451333
H        1.4614128065   -0.0640329147    0.8798890303
H        0.6022861575    1.3929784251    1.4670029001
H        1.2393621520    0.5882940297   -1.3700547791
H        0.3844395444    3.2775084023   -0.1678252576
H        1.0933928994    3.0341073768   -1.7750096744
H        2.0672969126    2.7373796345   -0.3257688120
H       -3.0537504112   -1.2526170199   -1.3076026589
H       -4.6530545464   -0.6666870566   -0.8100129326
H       -3.5150276096   -1.3022520391    0.4067891974
H       -3.6210766701    1.1361866179    0.3258497867
22   
Generated by ForceBalance from scan.xyz: Frame 11 of 24
C       -0.8519948459    1.0542077077   -1.2517732789
C        0.6165766777    0.6148141478    0.7392501935
C        0.5838489800    1.2304438368   -0.6823881139
C        1.0088057287    2.7019067729   -0.6432783035
C       -3.6525545999   -0.7309858299   -0.3231087557
N       -1.7451620595    0.8507519308   -0.0933617773
N       -3.1065068286    0.6328282907   -0.4797031363
O       -0.7400055143   -1.6071484487    0.1725689060
O       -1.5036128889   -0.3249403960    2.2258849993
S       -0.9188844009   -0.3273915174    0.8811987010
H       -1.1892572553    1.9538461687   -1.7689941649
H       -0.9083211231    0.2081687542   -1.9476965128
H        1.4421900710   -0.0784714351    0.9043551373
H        0.5945781389    1.3689899638    1.5276435203
H        1.2742356731    0.6719008365   -1.3187093962
H        0.2924177491    3.2916462126   -0.0609641432
H        1.0519775177    3.1196589991   -1.6544024360
H        1.9980014860    2.8191060744   -0.1876434601
H       -3.1260493193   -1.4229056175   -0.9826812815
H       -4.6997486539   -0.6796329698   -0.6349682137
H       -3.6061115340   -1.1153998151    0.7024295128
H       -3.6422871373    1.2490437310    0.1293648902
22   
Generated by ForceBalance from scan.xyz: Frame 12 of 24
C       -0.6072812815    1.0344386975   -1.2862678616
C        0.8396578197    0.5883480534    0.7003954040
C        0.7758860803    1.3308488648   -0.6593253420
C        0.9974773298    2.8355829475   -0.4684403712
C       -3.5325061830   -0.6370532611   -0.1499915693
N       -1.5378125718    0.8684799742   -0.1511418202
N       -2.8882380116    0.6139581141   -0.6020793340
O       -0.6220983116   -1.5978822101    0.2363931345
O       -1.3114447379   -0.1879164784    2.2280341617
S       -0.7443877295   -0.2774465539    0.8790091201
H       -0.9614495202    1.8766854415   -1.8827800577
H       -0.5922447541    0.1386122900   -1.9200054318
H        1.6128858016   -0.1791304204    0.7515133730
H        0.9274919199    1.2655536459    1.5510914590
H        1.5498855334    0.9313682949   -1.3194602296
H        0.1982198033    3.2648414501    0.1448874032
H        1.0021369872    3.3515353009   -1.4341121841
H        1.9541029148    3.0370219673    0.0252870881
H       -3.0407868976   -1.4974316094   -0.6056967403
H       -4.5630991290   -0.5917993035   -0.5133955660
H       -3.5451373734   -0.7670038020    0.9385427444
H       -3.4184137115    1.3803711958   -0.1894752433
22   
Generated by ForceBalance from scan.xyz: Frame 13 of 24
C       -0.5750948631    1.0469714927   -1.3064115979
C        0.8573986850    0.5715032118    0.6781237517
C        0.7941951388    1.3555772319   -0.6563922144
C        0.9825173742    2.8579903654   -0.4172939853
C       -3.5543448416   -0.6018826707   -0.0420053294
N       -1.5148325738    0.8286638606   -0.1889671858
N       -2.8466342852    0.5173408927   -0.6967463793
O       -0.5703539028   -1.6312381044    0.1536885110
O       -1.2854759905   -0.2717845187    2.1692483756
S       -0.7142509459   -0.3252449427    0.8206901263
H       -0.9380687553    1.8984562860   -1.8856172825
H       -0.5386217405    0.1691450726   -1.9636272647
H        1.6421664668   -0.1850950019    0.7135424308
H        0.9261169487    1.2219261721    1.5511933415
H        1.5820327716    0.9929524695   -1.3214388965
H        0.1684797066    3.2519108249    0.2003131058
H        0.9865951011    3.4032263581   -1.3667594140
H        1.9296938001    3.0636428619    0.0925813947
H       -3.0682177664   -1.5464033054   -0.2903642301
H       -4.5602667991   -0.6107910003   -0.4712649698
H       -3.6304507232   -0.5114876977    1.0479932065
H       -3.3684518408    1.3616488606   -0.4625797412
22   
Generated by ForceBalance from scan.xyz: Frame 14 of 24
C       -0.5788215074    1.0417001489   -1.3587286926
C        0.8407590794    0.4725276020    0.5943096874
C        0.7566022883    1.3744830010   -0.6604940135
C        0.8466842107    2.8580435530   -0.2842340427
C       -3.6454535155   -0.4956538276   -0.0085879818
N       -1.5443390811    0.7974509532   -0.2706439465
N       -2.8457096437    0.4281384943   -0.8375853086
O       -0.6716160229   -1.6875581638    0.0913476397
O       -1.3233087752   -0.2838891251    2.0969803661
S       -0.7660734983   -0.3704481733    0.7446459520
H       -0.9387375503    1.8909017023   -1.9447249141
H       -0.5058248635    0.1685753607   -2.0197051409
H        1.5806594197   -0.3249377290    0.5155419926
H        0.9921966989    1.0329876677    1.5176201724
H        1.5760144945    1.1217237871   -1.3387213992
H        0.0092047852    3.1421811955    0.3609279881
H        0.8176478771    3.4865399003   -1.1803592446
H        1.7789493601    3.0751577693    0.2476016749
H       -3.2113913505   -1.4958654572   -0.0440263199
H       -4.6336518695   -0.5372063085   -0.4749682140
H       -3.7515310352   -0.1839323259    1.0375524384
H       -3.3356534027    1.3230527752   -0.8212875407
22   
Generated by ForceBalance from scan.xyz: Frame 15 of 24
C       -0.5597378290    0.9234445149   -1.3565156426
C        0.9237247671    0.4205374011    0.5499392437
C        0.7455528926    1.3599451065   -0.6636490991
C        0.7012690382    2.8319123641   -0.2359765981
C       -3.6032030978   -0.5485819947    0.1817186357
N       -1.5128063815    0.6586174778   -0.2637029911
N       -2.7623072421    0.1269892453   -0.8245082601
O       -0.5854775010   -1.7875052420    0.2346307952
O       -1.1840770464   -0.2552258930    2.1614171646
S       -0.6716065030   -0.4309846780    0.8002330060
H       -0.9647839968    1.7299638315   -1.9741803294
H       -0.4285390918    0.0334640898   -1.9861974522
H        1.6475980929   -0.3776234854    0.3805429178
H        1.1554376432    0.9460763886    1.4770197867
H        1.5768065666    1.2084616761   -1.3580533304
H       -0.1426409092    3.0137714857    0.4363215128
H        0.5912934261    3.4843628661   -1.1084499801
H        1.6223269278    3.1183741097    0.2821499531
H       -3.1874098267   -1.5306218078    0.4120094703
H       -4.5803020012   -0.6976402387   -0.2857648882
H       -3.7249881572    0.0193938079    1.1127197135
H       -3.2493270653    0.9881679845   -1.0760295913
22   
Generated by ForceBalance from scan.xyz: Frame 16 of 24
C       -0.3538154417    0.9313760474   -1.2149429883
C        1.1785821942    0.4320202298    0.6365746787
C        0.9271795838    1.4232414703   -0.5170085008
C        0.7947903571    2.8666757634   -0.0162249743
C       -3.4179685943   -0.4366980486    0.3857950684
N       -1.3062311856    0.6369995284   -0.1302071812
N       -2.4827833192   -0.0417569549   -0.6838234960
O       -0.3691939921   -1.7779411774    0.5211632229
O       -0.8928631697   -0.0944352976    2.3426996208
S       -0.4207450660   -0.3839308413    0.9859331695
H       -0.7829829259    1.7180262387   -1.8433312988
H       -0.1772802006    0.0425153502   -1.8366948213
H        1.8547590825   -0.3795549232    0.3641738857
H        1.5106612620    0.9050999857    1.5613654993
H        1.7572734553    1.3593767757   -1.2268827243
H       -0.0369490802    2.9601504460    0.6878312444
H        0.6134744198    3.5498567750   -0.8524944260
H        1.7113334620    3.1902044686    0.4876423682
H       -3.0446688131   -1.3291812005    0.8906393193
H       -4.3626253280   -0.6957107323   -0.0998752742
H       -3.5864271127    0.3523905268    1.1302536230
H       -2.9311980187    0.7159959918   -1.2006882035
22   
Generated by ForceBalance from scan.xyz: Frame 17 of 24
C       -0.3465689977    1.0390514222   -1.0409227562
C        1.1430355071    0.5552950547    0.8759842808
C        0.9344612498    1.5091656808   -0.3220897830
C        0.8277836117    2.9697229510    0.1328891402
C       -3.5252088534   -0.1020933989    0.4838710719
N       -1.3033129279    0.7058507902    0.0279994271
N       -2.4729276569    0.0378667472   -0.5382047067
O       -0.2429381597   -1.7161788236    0.4527615128
O       -0.9486528721   -0.2874393577    2.4259342733
S       -0.4055189451   -0.3924575973    1.0688764306
H       -0.7713842128    1.8497504751   -1.6414625079
H       -0.1664398828    0.1727901655   -1.6931156389
H        1.9184382847   -0.1929248900    0.7078122695
H        1.3229751396    1.0754886454    1.8173576565
H        1.7755686917    1.4045794243   -1.0132153607
H       -0.0310601763    3.1048099591    0.7973056148
H        0.7034437810    3.6351428033   -0.7278278868
H        1.7305169379    3.2806095806    0.6686407623
H       -3.2606183266   -0.9002664830    1.1789461039
H       -4.4416182194   -0.3944332743   -0.0362811213
H       -3.6962199311    0.8200343543    1.0553552757
H       -2.8036550796    0.7112905710   -1.2290902338
22   
Generated by ForceBalance from scan.xyz: Frame 18 of 24
C       -0.5017151902    1.1720297658   -0.9523882796
C        0.9362690931    0.6954091226    1.0528725941
C        0.8483026457    1.5145777116   -0.2573853215
C        0.9828614663    3.0139016685    0.0276731948
C       -3.6567796020    0.0108992311    0.5238203582
N       -1.3843373986    0.6285405018    0.0878324333
N       -2.5617421422   -0.0153218014   -0.4588527105
O        0.0742134970   -1.6256653150    0.0408911472
O       -1.0115213487   -0.8615134172    2.2045209437
S       -0.3808013203   -0.5408936508    0.9220890598
H       -0.9680831667    2.0756119131   -1.3578522644
H       -0.3629246999    0.4452785002   -1.7653198508
H        1.8776152373    0.1597032902    1.1772269666
H        0.7238375958    1.2937364276    1.9402242108
H        1.6563024619    1.1993018444   -0.9216565105
H        0.1481514780    3.3625488343    0.6454606771
H        0.9826131394    3.5889493608   -0.9042228219
H        1.9154083284    3.2342677621    0.5578077565
H       -3.4081538903   -0.6468937254    1.3568263595
H       -4.5499285379   -0.3798540564    0.0275420383
H       -3.8599622548    1.0175747578    0.9161615313
H       -2.8193847548    0.5361259989   -1.2743514305
22   
Generated by ForceBalance from scan.xyz: Frame 19 of 24
C       -0.4255573064    1.2726806970   -0.9366303728
C        1.2834818558    1.0471493067    0.9028351293
C        0.9458220027    1.7953642560   -0.4099334508
C        0.9329974827    3.3105604379   -0.1851365317
C       -3.3053652533    0.0031012630    0.7939938716
N       -1.0710045212    0.5814442092    0.1813886356
N       -2.2022710048   -0.2234776596   -0.1427301284
O        0.7098231897   -1.4066062992    0.0060103871
O       -0.2754836035   -0.7678617990    2.2589141056
S        0.1759270474   -0.3853619052    0.9200542843
H       -1.0681629254    2.1024833412   -1.2459758538
H       -0.2841541581    0.5935441535   -1.7910846958
H        2.3090531184    0.6804545541    0.9482141526
H        1.0541357555    1.6354020342    1.7929057843
H        1.7064016012    1.5477566332   -1.1539727437
H        0.1399422335    3.5869729746    0.5182773297
H        0.7564583363    3.8426424238   -1.1258227816
H        1.8876535503    3.6583328265    0.2235206182
H       -2.9909384718   -0.3209817763    1.7870729467
H       -4.1467933023   -0.6203937478    0.4768997629
H       -3.6275156959    1.0541097041    0.8466228527
H       -2.4618052507   -0.0672297206   -1.1121088686
22   
Generated by ForceBalance from scan.xyz: Frame 20 of 24
C       -0.3872697894    1.0050342154   -0.8937938439
C        1.4461589038    0.7387861317    0.8100249555
C        0.9459328017    1.6082301870   -0.3749689325
C        0.7670940902    3.0667010763    0.0617048958
C       -3.3016998188   -0.0032871311    0.7388098600
N       -0.9860505674    0.3046735572    0.2452841495
N       -2.1305100263   -0.4847050813    0.0094647910
O        0.7159733165   -1.7183077080    0.0254929326
O       -0.0736487752   -0.9756906576    2.3240051680
S        0.2856550840   -0.6516993934    0.9436165040
H       -1.0734406934    1.7921513102   -1.2181783712
H       -0.2132062759    0.3155302425   -1.7345084777
H        2.4384262955    0.3141893821    0.6569044948
H        1.4113238592    1.2708476120    1.7616748162
H        1.6792848148    1.5603132096   -1.1836383799
H       -0.0118499981    3.1428928116    0.8279132654
H        0.4762420171    3.6947096811   -0.7868960576
H        1.6958017890    3.4718633191    0.4769069915
H       -3.0963899380   -0.0700525412    1.8085599936
H       -4.1402033977   -0.6664165625    0.5054185402
H       -3.5827018548    1.0327795688    0.4935252501
H       -2.2825862937   -0.6253933486   -0.9859032657
22   
Generated by ForceBalance from scan.xyz: Frame 21 of 24
C       -0.5258363744    0.6800313924   -1.3440555193
C        1.5069903188    0.3223478891    0.0306059837
C        0.7647740248    1.3619498830   -0.8447685318
C        0.4543872716    2.6410511374   -0.0581863767
C       -3.3942785730   -0.2570386100    0.1250559183
N       -1.0408129572   -0.0562886104   -0.1832856293
N       -2.1633234189   -0.8848096461   -0.3512769638
O        0.5445888568   -2.1570270804   -0.3511695832
O        0.1074824634   -1.1012468227    1.9179247819
S        0.2877064704   -0.9654405520    0.4725378204
H       -1.2716744775    1.4192949212   -1.6480538308
H       -0.3267084028    0.0066998571   -2.1936060754
H        2.2999578199   -0.2003305528   -0.5051779870
H        1.8964142820    0.7414344350    0.9589422902
H        1.3895548086    1.6081097675   -1.7082255473
H       -0.1911378751    2.4221235745    0.7976219197
H       -0.0551948968    3.3728190380   -0.6936020202
H        1.3742025372    3.1031332353    0.3144977018
H       -3.2980047505   -0.0697582659    1.1961201889
H       -4.2157244117   -0.9623607101   -0.0328283842
H       -3.6374363835    0.6907049454   -0.3808457500
H       -2.2255944123   -1.2314755362   -1.3078716184
22   
Generated by ForceBalance from scan.xyz: Frame 22 of 24
C       -0.5817613926    0.6741420334   -1.2713193786
C        1.5211522225    0.3103819641   -0.0185786954
C        0.7284152150    1.3596015806   -0.8345906377
C        0.4544209960    2.6246936890   -0.0123655330
C       -3.4107530013   -0.2253375210    0.0020113277
N       -1.0394873635   -0.0699005298   -0.0858785637
N       -2.1503641917   -0.9290609033   -0.2288611889
O        0.5214494812   -2.1563771982   -0.3994250909
O        0.2537548709   -1.1557005119    1.9209993797
S        0.3295885862   -0.9851397109    0.4713349429
H       -1.3432270927    1.4109629817   -1.5385261459
H       -0.4215686824    0.0018407422   -2.1295353563
H        2.2842409878   -0.2027390595   -0.6047862278
H        1.9594827557    0.7150233062    0.8941802436
H        1.3028000707    1.6232415732   -1.7273126600
H       -0.1409784997    2.3894319084    0.8747368572
H       -0.0946767504    3.3617245459   -0.6075235123
H        1.3907597976    3.0881012482    0.3147407475
H       -3.4262683651    0.1367264884    1.0320636558
H       -4.2254337195   -0.9436914514   -0.1281512651
H       -3.5813330485    0.6260795006   -0.6756428429
H       -2.1279248379   -1.3897574834   -1.1406881044
22   
Generated by ForceBalance from scan.xyz: Frame 23 of 24
C       -0.6477108382    0.6880863818   -1.1843809104
C        1.5199499747    0.2910898800   -0.0665453572
C        0.6920300629    1.3571725682   -0.8202784001
C        0.4814530453    2.6156310196    0.0308715247
C       -3.4250538721   -0.2072807899   -0.1190518125
N       -1.0538924558   -0.0551904147    0.0266762306
N       -2.1602326760   -0.9394868438   -0.0918135695
O        0.4473838839   -2.1490587596   -0.4286693223
O        0.3712876915   -1.1932550764    1.9255962080
S        0.3422834895   -0.9932746695    0.4787258257
H       -1.4097984906    1.4371803894   -1.4095236255
H       -0.5440233200    0.0153726024   -2.0505245470
H        2.2399506721   -0.2253606090   -0.7023824954
H        2.0158674541    0.6774719485    0.8243514808
H        1.2126408038    1.6262859867   -1.7437696573
H       -0.0591717784    2.3763887908    0.9512288316
H       -0.0976498785    3.3631045866   -0.5212352650
H        1.4406786991    3.0680289666    0.3023915131
H       -3.5316868689    0.3468674536    0.8164319131
H       -4.2333164565   -0.9413480545   -0.1827044924
H       -3.5256764289    0.4957427346   -0.9606582683
H       -2.0518756417   -1.5064031811   -0.9375831507
22   
Generated by ForceBalance from scan.xyz: Frame 24 of 24
C       -0.6989772837    0.5982181887   -1.5830762293
C        1.2352617817    0.2083451236   -0.0364766839
C        0.4595049847    1.3042697064   -0.7953288212
C       -0.0444785334    2.3965575519    0.1556367502
C       -3.0198529942    0.0312833303    0.1835512497
N       -1.0473231255   -0.7126050308   -0.9893906268
N       -1.6676858212   -0.5169505771    0.3421207306
O        1.1491593920   -1.6640561750   -1.9582613041
O        0.4247739975   -2.3916182932    0.3758670199
S        0.5425239023   -1.3628880820   -0.6601296963
H       -1.5928067095    1.2201013105   -1.6254921789
H       -0.3919802214    0.3854330478   -2.6079475177
H        2.3070014991    0.1925517567   -0.2368412522
H        1.0433086142    0.2223952810    1.0364175178
H        1.1240450115    1.7589413365   -1.5355427624
H       -0.7070048300    1.9697575368    0.9134526266
H       -0.5963952533    3.1647397676   -0.3972103000
H        0.7897293506    2.8908963799    0.6649903617
H       -2.9810768298    1.1084548062    0.0020727916
H       -3.5430529505   -0.1215719492    1.1314795938
H       -3.5882826771   -0.4494034032   -0.6253251588
H       -1.7522566721   -1.4693129799    0.6968166752
