29

C      1.30149    1.53691   -0.38999
C      0.01011    0.99464   -0.39581
C      1.51250    2.86945   -0.77032
C     -1.08682    1.77756   -0.78131
C      0.41957    3.64582   -1.15363
C     -0.87626    3.10368   -1.15855
C     -2.56635    6.89131   -3.07630
C      0.38448    5.09481   -1.58687
C     -1.88129    4.14695   -1.59240
C     -4.11061    7.02609   -4.63973
C     -4.23630    8.25589   -3.70393
C     -0.98693    5.20759   -2.28982
N     -3.08382    6.18271   -4.01235
N     -1.49347    6.57315   -2.29076
O     -3.08358    8.14117   -2.82602
H      2.14526    0.91808   -0.09510
H     -0.14047   -0.04209   -0.10517
H      2.51770    3.28576   -0.77136
H     -2.08756    1.35106   -0.79122
H      0.41820    5.75529   -0.70719
H      1.21308    5.38517   -2.23908
H     -2.66318    3.77137   -2.25654
H     -2.37649    4.59164   -0.71702
H     -5.05627    6.48187   -4.72984
H     -3.79711    7.31272   -5.65167
H     -4.17479    9.21922   -4.21435
H     -5.13646    8.23016   -3.08137
H     -0.87534    4.91470   -3.33637
H     -1.46350    7.07116   -1.40845
