18   

C        4.6382788607    1.3333872482    0.7675983922
C        5.8269258006    1.0858238228    0.0916394611
C        3.5008874128    0.5758692131    0.4819786556
C        5.8696479660    0.0784132424   -0.8696494819
C        3.5148812075   -0.4449182471   -0.4880718959
C        4.7370211456   -0.6894294427   -1.1681808254
C        2.2836726517   -1.2595635898   -0.7409971179
C        0.9431776582   -0.8488043734   -0.1403485979
O        2.3102354744   -2.3131859061   -1.3628699842
O        4.8595604782   -1.6399765201   -2.1397051281
H        4.5961930377    2.1135241506    1.5195065341
H        6.7127021107    1.6723697243    0.3110670463
H        2.6021222367    0.8016784703    1.0437556986
H        6.8005460624   -0.1025984341   -1.3924341425
H        0.7106082296    0.1822385131   -0.4198143222
H        0.9768699788   -0.9383516323    0.9484019587
H        0.1494444698   -1.4982412429   -0.5210143232
H        5.7737776522   -1.6915442145   -2.4595269138
18   

C        4.6666548647    1.3228732647    0.8229776552
C        5.8361527049    1.1074090674    0.1016479090
C        3.5350944513    0.5453601376    0.5677991315
C        5.8663352441    0.1111071735   -0.8729935824
C        3.5390812337   -0.4554416673   -0.4197620245
C        4.7384615388   -0.6746876653   -1.1395721146
C        2.3294741382   -1.3189268933   -0.6179731070
C        0.9607230017   -0.8508224723   -0.1366668517
O        2.4123600260   -2.4711546229   -1.0185709282
O        4.8286069294   -1.6091485293   -2.1302273538
H        4.6364526366    2.0908166710    1.5878738858
H        6.7171323026    1.7093147613    0.2974676509
H        2.6511937979    0.7340861867    1.1660365549
H        6.7809023299   -0.0453667710   -1.4312918505
H        0.7724277007    0.1669597707   -0.4889995207
H        0.9162506664   -0.8771705472    0.9548722652
H        0.1820317817   -1.5057090682   -0.5383281512
H        5.7395027188   -1.6784337147   -2.4567417616
18   

C        4.7399755517    1.2584457674    0.8904740126
C        5.8713357208    1.0643341096    0.1031237513
C        3.5968832321    0.4855203685    0.6732469358
C        5.8531850243    0.0913166704   -0.8962113473
C        3.5526894013   -0.4797736068   -0.3443829146
C        4.7123971915   -0.6879577081   -1.1219563539
C        2.3474367075   -1.3659700565   -0.4960315700
C        0.9639383129   -0.8428226639   -0.1288073251
O        2.4567350047   -2.5681761037   -0.6810882383
O        4.7382617293   -1.6044205817   -2.1331539639
H        4.7495671666    2.0041338852    1.6775743462
H        6.7607196367    1.6628935037    0.2688206459
H        2.7433883034    0.6471469645    1.3214056869
H        6.7378223767   -0.0517648722   -1.5041028322
H        0.7729763560    0.0914085065   -0.6639018578
H        0.8931439221   -0.6704558067    0.9474217404
H        0.2021160406   -1.5717160371   -0.4201309784
H        5.6358438654   -1.6958911380   -2.4904844377
18   

C        4.7976661881    1.1959261677    0.9843705598
C        5.8838319067    1.0498132677    0.1243312743
C        3.6523811039    0.4162228940    0.8024124374
C        5.8212125409    0.1137052997   -0.9090139694
C        3.5638512259   -0.4991184923   -0.2538192506
C        4.6776687051   -0.6708332354   -1.0969309856
C        2.3643005783   -1.4049516050   -0.3769963154
C        0.9584277209   -0.8536252217   -0.1559869736
O        2.4840695210   -2.6188476484   -0.3551165292
O        4.6460556982   -1.5603816234   -2.1317637733
H        4.8459969601    1.9066709130    1.8017738762
H        6.7741299795    1.6538835159    0.2628233995
H        2.8417739247    0.5276340393    1.5129367228
H        6.6716622441    0.0031761244   -1.5701361179
H        0.5636557405   -0.5012912294   -1.1127520047
H        0.9529342140   -0.0209217950    0.5483877338
H        0.3019880923   -1.6408132533    0.2250932286
H        5.5238156976   -1.6429500344   -2.5381037422
18   

C        4.8620934243    1.1453898872    1.0628782822
C        5.8985140976    1.0297730352    0.1377927378
C        3.7104653072    0.3667376636    0.9204153735
C        5.7799308981    0.1248526286   -0.9194126023
C        3.5680907327   -0.5143591444   -0.1557819405
C        4.6289240542   -0.6577903010   -1.0646922016
C        2.3581691156   -1.4159331338   -0.2556184048
C        0.9671142946   -0.7955358315   -0.2228021903
O        2.4380934431   -2.6069932263   -0.0090216900
O        4.5340304575   -1.5237020430   -2.1155972893
H        4.9533258280    1.8320557538    1.8969952700
H        6.7934815283    1.6334694119    0.2439956037
H        2.9258060401    0.4475431711    1.6649212872
H        6.5918589058    0.0371534897   -1.6304919766
H        0.6350339344   -0.6180883075   -1.2492946940
H        0.9758708694    0.1574691236    0.3104254438
H        0.2615738591   -1.4734110962    0.2652038167
H        5.3824077304   -1.5839613967   -2.5843567261
18   

C        4.9032380231    1.1525669331    1.1117760994
C        5.8269353301    1.1434050514    0.0673763587
C        3.7790521339    0.3245279131    1.0545416343
C        5.6138946086    0.3104522999   -1.0336975733
C        3.5701342767   -0.5278990587   -0.0328433599
C        4.4878858049   -0.5181697865   -1.0954896550
C        2.3326806703   -1.3957109205   -0.1114142168
C        1.1602496797   -0.9436359351   -0.9693455208
O        2.3184521221   -2.5209620057    0.3569035494
O        4.2941109090   -1.3089731014   -2.1913670587
H        5.0577341508    1.7991356723    1.9683195828
H        6.7028193609    1.7819640033    0.1096419159
H        3.0654444568    0.3356012767    1.8717849256
H        6.3318440514    0.3166251634   -1.8443240067
H        1.5267674461   -0.5082429591   -1.9024755029
H        0.5815786019   -0.1910195643   -0.4278175035
H        0.5143847233   -1.7944074611   -1.2030742535
H        5.0765428274   -1.2877168984   -2.7670244593
18   

C        4.9454335876    1.1116056530    1.1590903787
C        5.8074909212    1.1610886219    0.0659541828
C        3.8243295764    0.2788919426    1.1243309099
C        5.5358931430    0.3808155334   -1.0593813076
C        3.5543983572   -0.5279086104    0.0145702431
C        4.4128076507   -0.4536109453   -1.0997489833
C        2.2910481144   -1.3567723676   -0.0306313630
C        1.2450219215   -1.1085993854   -1.1124945818
O        2.1822206524   -2.3746476185    0.6332516641
O        4.1930817519   -1.2114442413   -2.2139996802
H        5.1435873783    1.7178292774    2.0359125560
H        6.6816458853    1.8029545524    0.0901650274
H        3.1554326008    0.2503918722    1.9784157789
H        6.2102919295    0.4290035498   -1.9052570281
H        1.6939869282   -0.6697395692   -2.0054591403
H        0.4934977925   -0.4137321772   -0.7292736263
H        0.7564901916   -2.0476852780   -1.3853883842
H        4.9464996990   -1.1422020273   -2.8238547020
18   

C        4.9938878604    1.0805126721    1.1924343463
C        5.8001141261    1.1873688699    0.0618665146
C        3.8679040532    0.2546136141    1.1683375815
C        5.4640754168    0.4768955420   -1.0919500104
C        3.5428392847   -0.4978245275    0.0325380724
C        4.3342736359   -0.3493039960   -1.1245655240
C        2.2553888184   -1.2841796603    0.0325155930
C        1.2672714797   -1.1832867940   -1.1229489309
O        2.0621335897   -2.1526924064    0.8700791312
O        4.0528104492   -1.0276164165   -2.2746926433
H        5.2382969561    1.6373339718    2.0901056261
H        6.6791976867    1.8227182290    0.0782706736
H        3.2401012061    0.1842146145    2.0510980036
H        6.0938134701    0.5746916866   -1.9674446365
H        1.5885358654   -1.8141518617   -1.9544788734
H        1.1998600142   -0.1450859920   -1.4584509719
H        0.2769846718   -1.5090826292   -0.7932501341
H        4.7682233686   -0.9060157767   -2.9212336611
18   

C        4.9964855773    0.9419133980    1.2656185106
C        5.7876401312    1.0747120217    0.1276663215
C        3.8345499052    0.1689903836    1.2190311664
C        5.4037984639    0.4405511377   -1.0551906168
C        3.4536816969   -0.5034781805    0.0479737210
C        4.2387983157   -0.3342116961   -1.1133900456
C        2.1348636819   -1.2265628262    0.0548249545
C        1.2305633680   -1.2832768999   -1.1704296710
O        1.8274942007   -1.9241431991    1.0129604984
O        3.9223221275   -0.9399752104   -2.2946811195
H        5.2796188129    1.4384590660    2.1869658558
H        6.6933662941    1.6707379756    0.1615118346
H        3.2203825919    0.0813333700    2.1101013673
H        6.0256955231    0.5571921943   -1.9339787848
H        1.5373698785   -2.1033428436   -1.8242519464
H        1.2859380703   -0.3386889917   -1.7181040768
H        0.1947781113   -1.4422241979   -0.8581089614
H        4.6250002547   -0.7892643828   -2.9490858110
18   

C        5.0573844966    0.8870678183    1.2812200964
C        5.8316252769    1.0260779477    0.1329850131
C        3.8596999682    0.1714424311    1.2314795050
C        5.3979077666    0.4529943570   -1.0634435310
C        3.4201689122   -0.4326382186    0.0407205300
C        4.1974760793   -0.2654982719   -1.1283929595
C        2.0824425880   -1.1168180306    0.0737127527
C        1.2266566296   -1.3334354995   -1.1689408653
O        1.6868705618   -1.6163858788    1.1214236485
O        3.8422404786   -0.8124344634   -2.3268427837
H        5.3814222569    1.3343697857    2.2142446060
H        6.7643613242    1.5786730083    0.1700697177
H        3.2660911663    0.0822221875    2.1363136533
H        6.0105361945    0.5723677520   -1.9483516950
H        1.6187040507   -2.1703279748   -1.7521612156
H        1.2226866088   -0.4277445461   -1.7811559798
H        0.1968943633   -1.5565739492   -0.8763091853
H        4.5360850309   -0.6520685103   -2.9883941930
18   

C        5.0732943796    0.8188157954    1.3195520343
C        5.8401369070    0.9389538459    0.1647031332
C        3.8307047940    0.1846207058    1.2692036549
C        5.3567012775    0.4256877217   -1.0394945960
C        3.3329246644   -0.3496816010    0.0655402595
C        4.1117109392   -0.2123746053   -1.1080363190
C        1.9669680649   -0.9783938683    0.1183463243
C        1.1640220164   -1.3562348234   -1.1213551251
O        1.4736853313   -1.2520117208    1.2086311714
O        3.7121699188   -0.6980807262   -2.3185065827
H        5.4381855873    1.2176003343    2.2594797237
H        6.8067188617    1.4298528129    0.2031599057
H        3.2536364797    0.1117482416    2.1860103165
H        5.9663944396    0.5285821986   -1.9284873653
H        1.6370315258   -2.1996482072   -1.6305734757
H        1.1020195938   -0.5016884500   -1.8001606083
H        0.1486023013   -1.6441090809   -0.8349618895
H        4.4004919946   -0.5418568920   -2.9868143616
18   

C        5.1368221520    0.7417106473    1.3248062870
C        5.9095654948    0.8402984878    0.1720285247
C        3.8570325086    0.1876727448    1.2623507863
C        5.3966507109    0.3825657708   -1.0421906806
C        3.3234184494   -0.2794076574    0.0452144916
C        4.1148299836   -0.1761591269   -1.1239573118
C        1.9337491216   -0.8573044862    0.0966843421
C        1.2005251456   -1.4089438690   -1.1209846549
O        1.3396025054   -0.8958518344    1.1707119722
O        3.6851487916   -0.6003699903   -2.3470103197
H        5.5263548141    1.0945425857    2.2731872779
H        6.9041149402    1.2707703274    0.2201150776
H        3.2829139293    0.1269178564    2.1818008413
H        6.0121868285    0.4673266535   -1.9290666733
H        1.7624627427   -2.2430025907   -1.5489864868
H        1.0763723730   -0.6226119957   -1.8699067668
H        0.2104037613   -1.7704446268   -0.8294422504
H        4.3713756675   -0.4426672367   -3.0171332270
18   

C        5.1462652836    0.6463709324    1.3536655528
C        5.9299456913    0.7267342422    0.2066946063
C        3.8354123420    0.1734434769    1.2713793555
C        5.3977574317    0.3286455701   -1.0203117901
C        3.2784060294   -0.2209447857    0.0400085805
C        4.0850257395   -0.1493829669   -1.1205468399
C        1.8700857630   -0.7495810726    0.0729884152
C        1.2113530100   -1.4680937601   -1.0992559874
O        1.1817370469   -0.5623994570    1.0720154821
O        3.6320725984   -0.5088965207   -2.3560083240
H        5.5515919780    0.9496260940    2.3125113886
H        6.9480395825    1.0959400384    0.2692513059
H        3.2512841773    0.1172418705    2.1848827063
H        6.0219466368    0.3972973055   -1.9025226210
H        1.8547638762   -2.2800282643   -1.4480474685
H        1.0292764250   -0.7639004520   -1.9149442741
H        0.2551537717   -1.8958781120   -0.7851645218
H        4.3184544721   -0.3480833240   -3.0252224077
18   

C        4.6248533084    1.9331144348    0.1393532323
C        5.7547537263    1.1230091754    0.0740051320
C        3.3673870202    1.3994544985   -0.1487914753
C        5.6184956655   -0.2220047981   -0.2729064159
C        3.2150583195    0.0531707736   -0.5233993714
C        4.3630365793   -0.7712148443   -0.5621764269
C        1.8128965991   -0.4423375250   -0.7404684171
C        1.4184455981   -1.9091104820   -0.6121476842
O        0.9522594038    0.3377799710   -1.1334834336
O        4.3050499546   -2.0893824156   -0.9095741120
H        4.7185560665    2.9775975920    0.4148327509
H        6.7332635203    1.5363437943    0.2940191447
H        2.4975791737    2.0461501186   -0.0834040919
H        6.5070262870   -0.8394267576   -0.3168329434
H        1.8879124722   -2.3450991051    0.2736366929
H        1.7304157700   -2.4599010700   -1.5029565561
H        0.3335041557   -1.9937826395   -0.5045970740
H        5.2002668074   -2.4657350895   -0.9512055644
18   

C        4.5916264790    1.9076447031    0.2117298188
C        5.7312532850    1.1115252953    0.1346949402
C        3.3485204632    1.3794519201   -0.1423504704
C        5.6172403218   -0.2144152034   -0.2866397763
C        3.2220406354    0.0596335647   -0.6014095864
C        4.3749002547   -0.7547308370   -0.6409301885
C        1.8346911296   -0.4603524828   -0.8603795496
C        1.4368048790   -1.9016212608   -0.5660043446
O        1.0270533710    0.2333182828   -1.4650992017
O        4.3286549178   -2.0536196287   -1.0572294412
H        4.6670272015    2.9358463973    0.5474663632
H        6.6992546184    1.5199498003    0.4046860728
H        2.4656033076    2.0070417676   -0.0683296829
H        6.5111238341   -0.8236208809   -0.3363432947
H        1.9479725859   -2.2524992969    0.3344690147
H        1.7020478765   -2.5428568206   -1.4101520225
H        0.3580949330   -1.9598823659   -0.3967417190
H        5.2264991667   -2.4219792314   -1.1111067375
18   

C        4.5541638235    1.8261947205    0.2840698172
C        5.7033577308    1.0487742148    0.1640696181
C        3.3209929032    1.3122003974   -0.1228594898
C        5.6070866898   -0.2457420743   -0.3495536976
C        3.2153089642    0.0315659743   -0.6802449048
C        4.3734279085   -0.7689020176   -0.7552089953
C        1.8424448056   -0.5069535345   -0.9982155475
C        1.4072808584   -1.8896962116   -0.5286030721
O        1.1161397421    0.0785887642   -1.7873617398
O        4.3342624414   -2.0372430170   -1.2570295935
H        4.6150689214    2.8285089094    0.6930407257
H        6.6642318517    1.4463145112    0.4729579162
H        2.4290730833    1.9218791686   -0.0173978633
H        6.5062704285   -0.8437306619   -0.4302007188
H        1.7628924124   -2.0594016308    0.4910446108
H        1.8113839370   -2.6607277324   -1.1879471130
H        0.3159415693   -1.9564945954   -0.5337713968
H        5.2349712068   -2.3895760467   -1.3529597208
18   

C        4.6310900448    1.8172972082    0.3931392083
C        5.7944916802    1.0728523220    0.2120148029
C        3.4030623344    1.3038490689   -0.0309010369
C        5.7186021376   -0.1861364417   -0.3864280421
C        3.3155562498    0.0559228380   -0.6556509592
C        4.4902431997   -0.7056967486   -0.8111829695
C        1.9654372511   -0.5117718287   -1.0299057302
C        1.4792179681   -1.8167469457   -0.4079555137
O        1.3447822698   -0.0803508760   -1.9876716388
O        4.4633004159   -1.9345195716   -1.4056722706
H        4.6776779238    2.7937595318    0.8621174779
H        6.7508940689    1.4693485173    0.5357593924
H        2.5011520323    1.8885411192    0.1187245394
H        6.6282410797   -0.7583789568   -0.5196107701
H        0.8747528569   -1.5882840184    0.4734717752
H        2.3164506466   -2.4440050493   -0.0962698165
H        0.8683918074   -2.3705126297   -1.1257652060
H        5.3675308750   -2.2575510082   -1.5552532628
18   

C        4.6221913978    1.7663759632    0.4482209629
C        5.8068362889    1.0781876222    0.1892070521
C        3.4005361016    1.2315423130    0.0308123680
C        5.7596549452   -0.1476248742   -0.4791646374
C        3.3466797739    0.0168816565   -0.6579505931
C        4.5377917920   -0.6873970063   -0.8963259207
C        2.0198763456   -0.5797356977   -1.0753633099
C        1.4021283482   -1.6843239203   -0.2307996993
O        1.5206570610   -0.3175839679   -2.1559872953
O        4.5181271768   -1.8958187644   -1.5313040632
H        4.6484713780    2.7161934698    0.9704688816
H        6.7575734046    1.4917067309    0.5082953618
H        2.4828704775    1.7735379944    0.2342222883
H        6.6838577004   -0.6794225121   -0.6679635770
H        0.9128310935   -1.2448570311    0.6421275719
H        2.1791469423   -2.3752359298    0.1061202437
H        0.6632495889   -2.2378882366   -0.8166377431
H        5.4225516623   -2.1849115143   -1.7373970937
18   

C        4.6004828963    1.7063451232    0.4566701366
C        5.8136561022    1.1491930669    0.0552787707
C        3.3982152900    1.0905254321    0.0986739630
C        5.8148925929   -0.0167862975   -0.7135649633
C        3.3916856427   -0.0971020480   -0.6391016682
C        4.6130131191   -0.6356616842   -1.0754089613
C        2.0871838922   -0.7101778706   -1.0964170613
C        1.0128551182   -1.0232175589   -0.0625779292
O        1.7301550443   -0.6361832941   -2.2595425139
O        4.6444195915   -1.7823008471   -1.8153022960
H        4.5895776482    2.6213702465    1.0382150623
H        6.7491351727    1.6233256094    0.3323567817
H        2.4624617022    1.5526389205    0.3941820552
H        6.7613781351   -0.4400516835   -1.0259163240
H        1.1096399582   -0.3753297643    0.8112071504
H        1.1241993716   -2.0621975631    0.2592528985
H        0.0185733039   -0.8922806691   -0.4981367097
H        5.5470953404   -1.9629125544   -2.1246019213
18   

C        4.5845109768    1.6200551057    0.5290755804
C        5.8107565950    1.1348797918    0.0799630624
C        3.4013773660    0.9691332496    0.1695989583
C        5.8447766883    0.0042024941   -0.7376136475
C        3.4262035409   -0.1879580558   -0.6189376908
C        4.6638746751   -0.6524857893   -1.1019398339
C        2.1378869441   -0.8202344679   -1.0829247623
C        0.9649919507   -0.9724184796   -0.1183313238
O        1.8879807669   -0.9476320896   -2.2702253857
O        4.7394600161   -1.7676579263   -1.8854266438
H        4.5479718261    2.5095229909    1.1480697996
H        6.7309163033    1.6378055971    0.3576011538
H        2.4630382258    1.3959062815    0.5038542115
H        6.8017515549   -0.3635937890   -1.0861668452
H        0.9550536667   -0.1873928590    0.6387728761
H        1.0463382109   -1.9393007508    0.3855583827
H        0.0202552631   -0.9425365719   -0.6682197935
H        5.6403373838   -1.8840605836   -2.2278625697
18   

C        4.5838559661    1.5237493582    0.6114749701
C        5.8114762133    1.1133193755    0.0995557820
C        3.4169433033    0.8414435645    0.2592721180
C        5.8628987251    0.0225386018   -0.7683709909
C        3.4536729761   -0.2734179294   -0.5920953886
C        4.6991614250   -0.6679651136   -1.1268977797
C        2.1758319672   -0.9312762710   -1.0345160578
C        0.9635296588   -0.9434353128   -0.1110526619
O        1.9925979962   -1.2542376615   -2.1979606306
O        4.8102569173   -1.7473166043   -1.9550012852
H        4.5331940995    2.3782166147    1.2770486977
H        6.7197380902    1.6406497013    0.3710618462
H        2.4763889548    1.2041837380    0.6573353530
H        6.8226002721   -0.2898285433   -1.1607835182
H        0.5768998283    0.0687730155    0.0265314328
H        1.2469249385   -1.3633843020    0.8579211818
H        0.1747244281   -1.5666668395   -0.5422094005
H        5.7091317031   -1.8126926854   -2.3148003035
18   

C        4.5769096175    1.4469718011    0.6849673486
C        5.8051929811    1.1036811981    0.1300099598
C        3.4274337081    0.7374722381    0.3308361422
C        5.8754827584    0.0496815331   -0.7797279367
C        3.4775569990   -0.3374059328   -0.5740333023
C        4.7307883149   -0.6705892271   -1.1423685377
C        2.2133872515   -1.0303569648   -0.9864765866
C        0.9640289756   -0.9363122787   -0.1178323930
O        2.0871653499   -1.5527736810   -2.0846796626
O        4.8780255257   -1.7115643016   -2.0126693989
H        4.5118565448    2.2700202408    1.3878719963
H        6.7000753609    1.6529225345    0.4025541927
H        2.4884502843    1.0506503422    0.7724367714
H        6.8375292533   -0.2115319304   -1.2026317829
H        0.5413494319    0.0698278221   -0.1740064604
H        1.2155207391   -1.1733153515    0.9194992758
H        0.2154632237   -1.6543485701   -0.4651651445
H        5.7826476648   -1.7436714111   -2.3616296615
18   

C        4.6170752353    1.3942913366    0.7010172353
C        5.8290691784    1.0796153102    0.0984074235
C        3.4647988220    0.6795402156    0.3686603171
C        5.8803509496    0.0475777320   -0.8359617285
C        3.4892121383   -0.3712249734   -0.5686232400
C        4.7334797196   -0.6793395965   -1.1792176564
C        2.2250232610   -1.0910941863   -0.9251415909
C        0.9508329062   -0.8708705562   -0.1162110949
O        2.1364666913   -1.8138890230   -1.9086446949
O        4.8766854375   -1.6892969187   -2.0858011401
H        4.5668425469    2.1978618906    1.4273103545
H        6.7264054300    1.6329482609    0.3541309558
H        2.5433421520    0.9705733404    0.8591493497
H        6.8312338493   -0.1908792270   -1.2959620483
H        0.5964720704    0.1547934777   -0.2464927866
H        1.1442064908   -1.0639103872    0.9423640545
H        0.1699760742   -1.5573185397   -0.4564150816
H        5.7848661204   -1.7235234185   -2.4245850923
18   

C        4.6296194707    1.3631555538    0.7326755920
C        5.8322190530    1.0850110064    0.0954417735
C        3.4864214599    0.6250096212    0.4213919426
C        5.8829966592    0.0661409244   -0.8527101939
C        3.5073892624   -0.4113221858   -0.5332159435
C        4.7452458465   -0.6838960749   -1.1766081912
C        2.2589105601   -1.1798849009   -0.8387197265
C        0.9501164390   -0.8554504103   -0.1252643361
O        2.2285397163   -2.0876898648   -1.6594186106
O        4.8890420269   -1.6621098156   -2.1171761331
H        4.5801021646    2.1545159806    1.4723113283
H        6.7226514598    1.6565327945    0.3347890772
H        2.5753360151    0.8835807933    0.9479456291
H        6.8262884891   -0.1410658235   -1.3425237563
H        0.6576851767    0.1772185546   -0.3326127527
H        1.0667029594   -0.9982191841    0.9522051030
H        0.1566383728   -1.5195995657   -0.4802768714
H        5.8023410093   -1.6989049385   -2.4414020098
