32

C      0.10207    0.33473   -2.21134
C     -0.30169   -0.32951   -1.04592
C     -0.13576   -0.24677   -3.45579
C     -0.93930   -1.56430   -1.15040
C     -4.55535   -6.33012   -0.95499
C     -6.25663   -4.66648   -0.83041
C     -0.77573   -1.49196   -3.57258
C     -1.17934   -2.15541   -2.40090
C     -5.86675   -5.99448   -0.62165
C     -4.16882   -4.17989   -1.61906
C     -0.98308   -2.10201   -4.94647
C     -2.02655   -3.22294   -4.95491
C     -1.76079   -4.19391   -3.80416
C     -1.91180   -3.48766   -2.44865
N     -3.69968   -5.43724   -1.45534
N     -5.42372   -3.75578   -1.32355
N     -3.32258   -3.24270   -2.12088
Cl    -6.97955   -7.18004    0.02628
H      0.59761    1.30024   -2.14746
H     -0.12013    0.11241   -0.06973
H      0.17686    0.27181   -4.36027
H     -1.26174   -2.08654   -0.25174
H     -4.18724   -7.34566   -0.81632
H     -7.26697   -4.33850   -0.58982
H     -1.25318   -1.31476   -5.65916
H     -0.02193   -2.50827   -5.29159
H     -3.03382   -2.80136   -4.84807
H     -2.00341   -3.74743   -5.91596
H     -2.43912   -5.05040   -3.83041
H     -0.73876   -4.58778   -3.87998
H     -1.51486   -4.14475   -1.66879
H     -3.69134   -2.30314   -2.18248
