37

C      0.58833   -3.54425    3.57724
C     -0.73074   -3.14901    3.31496
C      1.28450   -4.36720    2.68294
C      2.62494   -9.38437   -3.10332
C      3.21282   -9.88194   -4.28133
C     -1.38692   -3.57279    2.15070
C      4.41127   -7.74068   -2.81624
C      0.63566   -4.78149    1.51763
C      3.19960   -8.33411   -2.37064
C      4.39274   -9.29009   -4.68784
C      4.97458   -8.24285   -3.96506
C     -0.67794   -4.38397    1.27940
C      1.11582   -5.63863    0.39313
C      2.53723   -7.81955   -1.14808
C      6.18072   -8.56807   -5.82546
C      1.40939   -8.60508   -0.53325
N      0.29061   -5.87611   -0.58818
N      3.01816   -6.71341   -0.67218
N      2.37266   -6.16604    0.44936
O     -2.21891   -6.14636   -0.04054
O     -1.44563   -4.08515   -1.28415
O      5.17877   -9.60124   -5.76990
O      6.15526   -7.86775   -4.57342
S     -1.19977   -5.12414   -0.28547
H      1.07671   -3.21058    4.48828
H     -1.25140   -2.51098    4.02345
H      2.30172   -4.67366    2.91292
H      1.68722   -9.82110   -2.77994
H      2.75959  -10.68986   -4.84621
H     -2.41054   -3.27834    1.93953
H      4.85988   -6.92401   -2.26391
H      7.16191   -9.02604   -5.96644
H      5.93504   -7.87348   -6.63954
H      1.61763   -9.67605   -0.58325
H      1.27283   -8.32416    0.51175
H      0.46987   -8.39770   -1.05296
H      3.02993   -5.62820    1.00281
