32

C      0.68151    1.69352   -3.70101
C      0.15146   -0.75722    2.16247
C      0.71945   -1.31926    0.85263
C     -0.32596   -1.36081   -1.59416
C      0.12344    0.59282   -0.88919
C     -1.35818   -0.81579    1.89268
C     -0.24367   -0.74331   -0.18100
C     -0.35978    3.71165   -4.59033
C     -1.71242    1.64709   -4.41772
C      0.57211    0.20937   -3.32949
N     -0.29881   -0.00055   -2.18499
N     -0.44351    2.32017   -4.16425
O      1.76233    2.27618   -3.56409
O     -1.52108   -0.70499    0.46560
H      0.44376   -1.32899    3.04731
H      0.47870    0.27871    2.30203
H      1.75864   -1.03893    0.66537
H      0.65293   -2.41419    0.84379
H      0.56496   -1.96211   -1.83708
H     -1.23218   -1.93545   -1.81118
H     -0.45803    1.47003   -0.59010
H      1.19747    0.82600   -0.84692
H     -1.78638   -1.77251    2.22016
H     -1.91356   -0.00471    2.37473
H     -0.54232    3.79542   -5.66977
H      0.63525    4.09127   -4.36408
H     -1.11086    4.31319   -4.06446
H     -2.53242    2.32676   -4.16263
H     -1.80731    0.76460   -3.78717
H     -1.81592    1.37303   -5.47728
H      0.18390   -0.36950   -4.17706
H      1.60636   -0.12004   -3.14062
