43

C      3.52736    5.14932   -6.83201
C      2.42058    5.83833   -6.29262
C      3.89821    3.90374   -6.32718
C      1.65365    5.30170   -5.25696
C      3.14389    3.36744   -5.27954
C      2.02978    4.04647   -4.76660
C      3.28731    2.11138   -4.52499
C      1.49200    1.41690   -1.37366
C     -0.16637   -1.61197   -0.55728
C      1.21850   -1.02507   -0.84540
C      0.86575    0.69534    0.87556
C     -0.52990    0.13966    1.20353
C     -0.62808   -1.37690    0.88903
C     -0.91679    0.51184    2.63940
C      0.15888   -2.25371    1.87357
C      1.81724    1.03763   -2.82560
N      1.40061    3.27250   -3.77743
N      2.28002    2.17752   -3.56694
N      1.25271    0.39705   -0.50340
O      4.06957    1.16895   -4.65899
O      1.43285    2.60714   -1.04040
O     -2.00868   -1.78962    0.88838
H      4.09218    5.59913   -7.64361
H      2.15268    6.81066   -6.69809
H      4.75122    3.35728   -6.71950
H      0.79545    5.83447   -4.85663
H     -0.90157   -1.14870   -1.22407
H     -0.16574   -2.68650   -0.76774
H      1.98935   -1.54516   -0.26208
H      1.46761   -1.17114   -1.89446
H      0.88497    1.77778    0.99674
H      1.61846    0.26993    1.55303
H     -1.24003    0.62504    0.52283
H     -0.19533    0.13352    3.37108
H     -1.90662    0.12668    2.90769
H     -0.95860    1.60002    2.75110
H     -0.24251   -2.16584    2.88858
H      1.21869   -1.98744    1.91994
H      0.08220   -3.30247    1.57252
H      0.92288    0.60292   -3.29536
H      2.62576    0.30567   -2.88922
H      1.24437    3.73092   -2.87675
H     -2.33019   -1.77810    1.80365
