25

C     -0.83088    0.23250    0.52863
C     -1.73282   -0.76783    0.87556
C     -1.63063    1.68608    2.30605
C     -4.14399   -0.67041    3.58596
C     -2.57188    0.70223    2.67529
C     -3.58262    0.59109    3.71548
C     -0.76438    1.45769    1.23791
C     -2.59255   -0.51924    1.95086
C     -3.97204    1.62361    4.67589
C      0.25654    2.49786    0.83153
N     -4.59919    1.48900    5.80286
N     -3.56318   -1.32650    2.52773
N     -3.58445    2.94241    4.36044
O     -4.85103    0.12470    6.12881
H     -0.15026    0.06720   -0.30376
H     -1.76226   -1.70868    0.33102
H     -1.56690    2.60963    2.87200
H     -4.92025   -1.13151    4.17590
H      0.11253    2.81320   -0.20853
H      0.19009    3.38840    1.46268
H      1.27745    2.10690    0.91299
H     -3.78865   -2.26780    2.23907
H     -3.98836    3.59770    5.02556
H     -3.83209    3.19908    3.40838
H     -5.22374    0.20685    7.02043
