39

C      3.14137   -4.56189    5.66374
C     -3.50330    1.94236   -2.42982
C      3.67214   -3.93125    4.55673
C     -2.25772    1.95295   -1.80077
C      1.90113   -4.14510    6.20550
C      2.71738   -1.11688    2.28304
C     -4.04883    0.71335   -2.81290
C     -2.24083   -0.42946   -1.99665
C      2.97173   -2.85483    3.95565
C     -1.59435    0.74125   -1.57134
C      1.71750   -2.41097    4.47968
C      3.45530   -2.15481    2.81057
C      1.22258   -3.10230    5.62038
C      1.48496   -0.76755    2.89516
C      0.10482   -0.45865    0.05838
C      0.08119    1.64121    0.25845
C     -0.23882    0.69062   -0.92573
C      0.68196    0.39621    2.34830
N     -3.43477   -0.45935   -2.60343
N      0.98894   -1.38832    3.95031
N      0.81598    0.53046    0.90724
O      4.64995   -2.56626    2.29521
F      0.04114   -2.71142    6.14194
H      3.67227   -5.38654    6.13070
H     -4.04551    2.86466   -2.61948
H      4.62128   -4.24499    4.13612
H     -1.80715    2.89266   -1.48838
H      1.47319   -4.63329    7.07590
H      3.04317   -0.55994    1.40803
H     -5.01899    0.66780   -3.30549
H     -1.76827   -1.39823   -1.83497
H     -0.79596   -0.86490    0.54429
H      0.72448   -1.28595   -0.30180
H      0.68122    2.53651    0.06298
H     -0.83398    1.92503    0.80235
H      0.54261    0.77263   -1.68864
H     -0.36357    0.26803    2.67328
H      1.05217    1.32262    2.80806
H      4.86977   -2.01317    1.52753
