32

C     -0.81709   -1.10437    3.68023
C      2.11239    1.64971   -1.25821
C      1.58309    0.22056   -1.07118
C      0.39631    0.46084    1.28623
C     -0.75349   -0.63941   -0.12141
C      0.81066    2.46084   -1.40100
C      0.31090    0.46754   -0.26801
C     -0.89363   -1.78707    6.02226
C     -1.17944   -3.51025    4.28678
C     -0.88388   -1.50772    2.20260
N     -0.83736   -0.36182    1.33091
N     -1.05881   -2.09531    4.60600
O     -0.54644    0.04877    4.01197
O     -0.23995    1.66688   -0.81784
H      2.66690    1.96383   -0.36774
H      2.77240    1.75991   -2.12282
H      1.32306   -0.22674   -2.03833
H      2.28688   -0.44362   -0.56327
H      1.28846   -0.06539    1.66204
H      0.30301    1.42353    1.79163
H     -1.68637   -0.47988   -0.67210
H     -0.34613   -1.63638   -0.36234
H      0.86133    3.42807   -0.88854
H      0.55423    2.63969   -2.45234
H     -1.73887   -2.19142    6.59045
H     -0.85299   -0.70632    6.14574
H      0.03335   -2.22665    6.41580
H     -0.22669   -4.04003    4.43189
H     -1.50555   -3.66505    3.25984
H     -1.92514   -3.96898    4.94504
H     -0.05459   -2.22359    2.00954
H     -1.81574   -2.04899    2.00161
