39

C     -5.23771   -1.38685    5.80141
C     -5.06173   -2.22649    6.91192
C     -4.77281   -1.76174    4.53641
C     -4.41504   -3.46248    6.78454
C     -5.26628   -8.40338    0.75200
C     -4.13625   -2.99427    4.40233
C     -4.28523   -7.89644    1.66746
C     -3.97704   -3.81593    5.51562
C     -4.98959   -9.72954    0.52576
C     -3.43969   -8.95959    2.00539
C     -3.59440   -3.57097    3.13756
C     -4.26453   -6.51505    2.14430
C     -5.67620  -10.71626   -0.36507
C     -2.35055   -9.07365    3.03183
C     -3.31152  -11.39661    1.41548
C     -2.89431   -5.85080    2.40901
N     -3.87281  -10.05928    1.29772
N     -2.98798   -4.80503    3.41627
O     -3.62776   -3.05808    2.03457
O     -5.27149   -5.82117    2.22919
O     -1.75871   -5.30400    5.66307
O     -3.89728   -6.51919    5.14306
S     -3.09246   -5.29799    5.06255
H     -5.74277   -0.43358    5.92881
H     -5.43163   -1.91595    7.88492
H     -4.89959   -1.12638    3.66515
H     -4.27022   -4.11633    7.63898
H     -6.06222   -7.82461    0.30315
H     -5.01871  -11.09258   -1.15893
H     -6.06079  -11.58219    0.18735
H     -6.52662  -10.22882   -0.84698
H     -2.50588   -8.35315    3.83607
H     -2.35167  -10.06316    3.49801
H     -1.35071   -8.91493    2.60761
H     -2.22087  -11.35110    1.44245
H     -3.66824  -11.90332    2.31978
H     -3.60350  -11.99009    0.54916
H     -2.59456   -5.36494    1.47524
H     -2.10673   -6.55184    2.67943
