21

C      0.31722    0.22669   -1.28142
C     -0.29829    0.41893   -0.04367
C      1.53986   -0.44958   -1.37677
C      1.52489   -0.74105    1.04603
C      0.30312   -0.06164    1.13106
C      2.11546   -0.91920   -0.20301
C     -1.66367   -0.68206    2.53592
C     -0.38786    0.12952    2.46855
N     -2.86316   -0.22600    2.42662
N     -1.50083   -2.04928    2.77390
O     -2.87298    1.19510    2.27230
F      3.30242   -1.57895   -0.26988
H     -0.15387    0.60492   -2.18471
H     -1.24980    0.93926    0.02386
H      2.03793   -0.61006   -2.32789
H      2.02615   -1.12203    1.93187
H      0.26626   -0.19203    3.28392
H     -0.63486    1.18078    2.62054
H     -0.72277   -2.45061    2.25779
H     -2.35769   -2.57293    2.61722
H     -3.82398    1.38557    2.28787
