21

C      1.78398   -1.73487    0.03828
C      0.61440   -1.40103    0.72269
C      3.04107   -1.44984    0.58583
C      1.93230   -0.48363    2.53320
C      0.67983   -0.77466    1.97806
C      3.08283   -0.82733    1.82692
C     -1.32999    0.70419    1.95687
C     -0.59838   -0.39216    2.70095
N     -2.39599    0.56372    1.24792
N     -0.79886    1.98925    2.09521
O     -2.86834   -0.78515    1.26979
F      4.29161   -0.54031    2.37916
H      1.72358   -2.22234   -0.93106
H     -0.35830   -1.61940    0.29030
H      3.96427   -1.70098    0.07291
H      2.02607   -0.00608    3.50492
H     -1.25829   -1.25601    2.78679
H     -0.37183   -0.03032    3.70790
H      0.21674    2.00275    2.05909
H     -1.20073    2.64590    1.43167
H     -3.69715   -0.70879    0.77163
