47

C      4.36834    0.26083    3.93666
C      7.89529    0.00518    5.06767
C      8.54689   -0.40635    3.89721
C      6.51728    0.19517    5.04929
C      7.82170   -0.63382    2.73186
C      6.14408   -0.72851    0.12142
C      4.98481   -0.99696   -0.67108
C      5.77657   -0.01961    3.87098
C      6.42584   -0.44851    2.68409
C      5.72563   -0.69012    1.43284
C      3.93016   -1.11164    0.19686
C      0.33747    2.27066   -0.78930
C     -0.04734    0.97367   -1.55074
C     -0.39373    1.53457    1.54779
C      1.94878    0.97779    0.66295
C     -0.62894   -0.60333    0.37294
C      0.77939    1.97666    0.65397
C      0.37776   -0.27480   -0.76193
C     -2.38079    0.20795    1.81808
C      2.45901   -1.32317    0.02420
N      3.24205    0.53148    4.06708
N     -1.30034    0.57664    0.91366
N      1.77328   -0.08693   -0.34169
O      4.37676   -0.92950    1.47882
H      8.45665    0.17440    5.98174
H      9.62209   -0.56369    3.89915
H      5.99341    0.52219    5.94220
H      8.33474   -0.98360    1.84140
H      7.15083   -0.55665   -0.23566
H      4.92833   -1.07586   -1.74855
H      1.16534    2.76959   -1.30525
H     -0.50366    2.97127   -0.78201
H     -1.12535    0.93749   -1.72719
H      0.45506    0.94991   -2.52264
H      0.01501    1.14326    2.49930
H     -0.99338    2.41778    1.80070
H      2.88380    1.50799    0.44089
H      2.05810    0.56485    1.67586
H     -1.41031   -1.25143   -0.04086
H     -0.12221   -1.19106    1.16363
H      1.16153    2.90012    1.10437
H      0.38024   -1.13468   -1.44166
H     -3.09837   -0.43638    1.29898
H     -2.91040    1.10850    2.14679
H     -2.02876   -0.32740    2.72108
H      2.30190   -2.05158   -0.77848
H      2.07876   -1.77170    0.95943
