29   

C        1.8452232383   -3.6859424696   -0.9187652816
C        0.8848363814   -3.5530001789    0.0701336325
C        5.3029959861    1.3381229004    0.0192985960
C        5.9503956644    1.1948141009   -1.1981195952
C        2.7224258056   -2.6349551396   -1.1765844021
C        0.7894938390   -2.3548797358    0.7718726689
C        4.2202166296    0.5032626236    0.2715061484
C        5.5085082669    0.2260835274   -2.0997744931
C        2.6735102619   -1.4065386280   -0.4628430914
C        1.6469081890   -1.2660116751    0.5149330792
C        3.7831421112   -0.4293819808   -0.6924102924
C        1.1423133041    1.1626295981    0.3374940899
C        0.8134455178   -0.0250762895    2.5284657754
N        4.4623654186   -0.5743732244   -1.8512594762
N        1.3596323814   -0.0422222409    1.1606563568
H        1.9255406834   -4.6088069625   -1.4819011611
H        0.2020436781   -4.3679117708    0.2818320134
H        5.6366664753    2.0624682893    0.7550542419
H        6.8020039175    1.8136565586   -1.4506892003
H        3.4797252624   -2.8086429752   -1.9328698389
H       -0.0035355312   -2.2640887849    1.5010487226
H        3.7372700815    0.5600035995    1.2359228654
H        6.0337553058    0.1127453348   -3.0408761698
H        1.4035715915    0.9801925877   -0.7093323882
H        1.7522281767    1.9917917798    0.7082921303
H        0.0872197285    1.4515876516    0.3702717217
H        1.0861652068    0.9080743717    3.0308978738
H        1.2252085046   -0.8526485710    3.1149298785
H       -0.2776321522   -0.1103897815    2.5037246664
29   

C        1.8976237685   -3.7418113401   -0.8424183975
C        0.8965257851   -3.5797020617    0.1043808389
C        5.3461012320    1.2351629023    0.1032202618
C        5.8501503868    1.2613567466   -1.1895325990
C        2.7821043090   -2.6957707692   -1.0971300352
C        0.7706769885   -2.3610931547    0.7696276954
C        4.3027266987    0.3543306804    0.3634789967
C        5.3070203845    0.4139197922   -2.1583257028
C        2.6941234735   -1.4565919458   -0.4191014052
C        1.6369080243   -1.2790541895    0.5145080442
C        3.7783665851   -0.4592762850   -0.6577745888
C        1.2515750450    1.1741087239    0.2981880430
C        0.7385736284    0.0136092960    2.4668575014
N        4.3001609627   -0.4334765302   -1.9010752518
N        1.3606837343   -0.0375518044    1.1330088969
H        1.9998400792   -4.6803251283   -1.3752894008
H        0.2066991348   -4.3896015266    0.3124816810
H        5.7543210698    1.8691151065    0.8834907753
H        6.6644285147    1.9239959062   -1.4539003735
H        3.5734383462   -2.8626985141   -1.8199681620
H       -0.0472888752   -2.2520619264    1.4680808063
H        3.8962793456    0.2792844402    1.3634585477
H        5.7173598244    0.4393671935   -3.1610136199
H        1.4709543525    0.9544858562   -0.7511009422
H        1.9463212748    1.9428253062    0.6490589046
H        0.2310740024    1.5669962253    0.3429038642
H        0.9866915487    0.9575505954    2.9619512295
H        1.1139772885   -0.8007223414    3.0947465416
H       -0.3497886989   -0.0681354645    2.3828658125
29   

C        1.9323777703   -3.8049250811   -0.7679772191
C        0.8973155815   -3.6078659305    0.1380807159
C        5.4024380776    1.1178169372    0.1568465599
C        5.7538769972    1.3157013133   -1.1719147168
C        2.8303327525   -2.7701030511   -1.0234772714
C        0.7522298850   -2.3679876906    0.7630144179
C        4.4013519237    0.1898624966    0.4187230905
C        5.1030867696    0.5900265533   -2.1741263206
C        2.7177184600   -1.5199625320   -0.3814660989
C        1.6331032205   -1.2986721885    0.5061115081
C        3.7813441371   -0.5063832564   -0.6318730151
C        1.3402396024    1.1654793921    0.2415850045
C        0.6977620381    0.0518293243    2.3999476778
N        4.1380335550   -0.3043151350   -1.9143957323
N        1.3701986848   -0.0390571778    1.0932341046
H        2.0462625602   -4.7590718090   -1.2697901615
H        0.1960647914   -4.4080575697    0.3455595397
H        5.8891518744    1.6618545721    0.9596626669
H        6.5276442401    2.0235355606   -1.4408012423
H        3.6454534111   -2.9395810910   -1.7189838088
H       -0.0872958870   -2.2340784286    1.4309358361
H        4.0853093940   -0.0099378343    1.4348402974
H        5.3904633699    0.7549000766   -3.2059381056
H        1.5196043952    0.9134763605   -0.8080591253
H        2.0979885005    1.8834943924    0.5682769226
H        0.3538948539    1.6364918275    0.2962232673
H        0.9386865480    1.0045317672    2.8817269863
H        1.0388054869   -0.7511551979    3.0611332323
H       -0.3874908560   -0.0187200941    2.2757047263
29   

C        1.9521187161   -3.8358071338   -0.6827135538
C        0.8841137020   -3.5979699437    0.1761818604
C        5.5059613993    0.9887176666    0.1974812486
C        5.6985272263    1.3633758659   -1.1261354929
C        2.8682999502   -2.8171749118   -0.9402863319
C        0.7262871630   -2.3357131620    0.7540141799
C        4.5333408976    0.0287053487    0.4511352894
C        4.9220548198    0.7770832138   -2.1306922432
C        2.7372984111   -1.5498919047   -0.3437834735
C        1.6264035381   -1.2835485427    0.4945676865
C        3.7936252875   -0.5290809385   -0.6023128492
C        1.4093180230    1.1837246387    0.1769342775
C        0.6682224698    0.1254377585    2.3322039591
N        3.9851715762   -0.1488208023   -1.8783368177
N        1.3749869343   -0.0066500333    1.0475494875
H        2.0744293229   -4.8074379025   -1.1476374558
H        0.1678892396   -4.3847227250    0.3839137952
H        6.0875961436    1.4268895181    1.0019175147
H        6.4417620081    2.1053173368   -1.3891543223
H        3.7055525304   -3.0062493651   -1.6034740339
H       -0.1341892829   -2.1717679113    1.3877685665
H        4.3247565602   -0.2994040887    1.4615737126
H        5.0829522489    1.0826801528   -3.1578816240
H        1.5346179125    0.9010265382   -0.8726694680
H        2.2278383063    1.8479483735    0.4686612328
H        0.4627005977    1.7278859818    0.2505617403
H        0.9116931565    1.0850628384    2.7987778356
H        0.9779011032   -0.6671412460    3.0208149871
H       -0.4141759028    0.0693564937    2.1793535662
29   

C        1.9991514654   -3.8552329750   -0.6173065893
C        0.8983973909   -3.5981278562    0.1942954850
C        5.6666834478    0.8111549192    0.1971944888
C        5.6939050732    1.3925563065   -1.0640869498
C        2.9155261230   -2.8370061317   -0.8771660608
C        0.7113022682   -2.3192674205    0.7259605871
C        4.6976418515   -0.1580435194    0.4294025743
C        4.7636760284    0.9938578725   -2.0292311402
C        2.7479762081   -1.5525159347   -0.3314225761
C        1.6123390347   -1.2690391655    0.4639839547
C        3.8007642451   -0.5217667704   -0.5846063487
C        1.3735859855    1.1850484296    0.0906190403
C        0.6378868918    0.1680098583    2.2684201003
N        3.8312553497    0.0582504442   -1.7972424269
N        1.3486094630    0.0160024074    0.9884329882
H        2.1456803095   -4.8411343555   -1.0436011561
H        0.1814221064   -4.3838818516    0.4032384081
H        6.3695525562    1.1015113476    0.9712150257
H        6.4252951026    2.1526034159   -1.3078841825
H        3.7775865798   -3.0387080729   -1.5035232010
H       -0.1688765534   -2.1410941751    1.3281632091
H        4.6138633011   -0.6417797769    1.3940970551
H        4.7959912967    1.4598596549   -3.0070748527
H        1.4187985471    0.8718118209   -0.9566787548
H        2.2334571417    1.8226579145    0.3146931440
H        0.4546592676    1.7675136486    0.2082165797
H        0.8758245697    1.1371364896    2.7179229193
H        0.9498866108   -0.6104787315    2.9718926619
H       -0.4438228237    0.1036421105    2.1142292807
29   

C        2.0277114629   -3.8399205862   -0.5268829058
C        0.8937515707   -3.5635986191    0.2308341732
C        5.8732923722    0.5715718252    0.1201009149
C        5.7549460745    1.3688908456   -1.0109119160
C        2.9431821435   -2.8220562133   -0.7921198821
C        0.6772197574   -2.2681606256    0.7079519890
C        4.8744631236   -0.3696669716    0.3415083752
C        4.6598669054    1.1994907981   -1.8636903539
C        2.7384016235   -1.5168157545   -0.3114322746
C        1.5784643829   -1.2201666268    0.4409067150
C        3.8010539589   -0.4901630182   -0.5520688742
C        1.2019757130    1.1923467460   -0.0190347202
C        0.6259403900    0.2381517089    2.2327677200
N        3.7004877330    0.2889410562   -1.6428202385
N        1.2929231891    0.0708944528    0.9317301219
H        2.2007944500   -4.8406452670   -0.9061329117
H        0.1766883890   -4.3482293319    0.4436865005
H        6.7087949604    0.6782241573    0.8042078974
H        6.4999940109    2.1203089669   -1.2395363744
H        3.8320682251   -3.0408688301   -1.3734632589
H       -0.2223960691   -2.0736301970    1.2756867916
H        4.9052936666   -1.0180958776    1.2075354765
H        4.5817338586    1.8296011188   -2.7418793328
H        1.2106402330    0.8287052402   -1.0509466183
H        2.0331032042    1.8878149189    0.1275989714
H        0.2577224393    1.7273695981    0.1208440458
H        0.8772595168    1.2136929816    2.6605176737
H        0.9627735347   -0.5309793534    2.9350546531
H       -0.4602111518    0.1687681210    2.1166398570
29   

C        2.0655836140   -3.8299075657   -0.4288452927
C        0.8907955900   -3.5332583980    0.2546272617
C        6.0386794134    0.3698760994   -0.0107284351
C        5.8141100865    1.3436557061   -0.9746672657
C        2.9872170654   -2.8155104647   -0.6864011029
C        0.6443294758   -2.2226330252    0.6703158969
C        5.0198560331   -0.5489546499    0.2140198792
C        4.6004175876    1.3608105130   -1.6681903262
C        2.7485589061   -1.4906342462   -0.2763564969
C        1.5531230807   -1.1799265895    0.4123991245
C        3.8190005471   -0.4725845785   -0.5076524980
C        0.9829091384    1.1656677952   -0.1352991646
C        0.6352855971    0.2978677365    2.1948571598
N        3.6235733801    0.4697050989   -1.4463316166
N        1.2369796013    0.1153469634    0.8648403988
H        2.2650688864   -4.8437161474   -0.7569872163
H        0.1677161683   -4.3142396004    0.4604447669
H        6.9693338419    0.3273422982    0.5456047238
H        6.5674443934    2.0889532336   -1.1959364540
H        3.9059802920   -3.0532483318   -1.2110618205
H       -0.2810139150   -2.0086971189    1.1879626012
H        5.1345152432   -1.3299432148    0.9544431015
H        4.4411158540    2.1253294618   -2.4195037576
H        1.0380498940    0.7588826891   -1.1497648587
H        1.7117035030    1.9746861217   -0.0327098089
H       -0.0247851023    1.5722431932   -0.0059972771
H        0.9103173704    1.2769712250    2.5990488504
H        1.0023410033   -0.4662073746    2.8874648672
H       -0.4553909895    0.2293130232    2.1331662208
29   

C        0.8204678453   -2.5556806061   -2.1783463178
C       -0.1010282373   -2.6036774104   -1.1392839106
C        5.8823535315    0.0032285018   -1.0072331095
C        5.6896692193    1.3660165770   -0.8181643716
C        1.9867186893   -1.8081045059   -2.0286313748
C        0.1595979638   -1.9205233033    0.0504596561
C        4.7517995673   -0.8062006645   -1.0042051735
C        4.3948340497    1.8642428524   -0.6404736105
C        2.2570034697   -1.0996067603   -0.8417958165
C        1.3395936364   -1.1733106599    0.2405221439
C        3.4803988700   -0.2467082653   -0.8034165243
C        0.4460942876   -0.1260533109    2.3380885397
C        2.9044939629   -0.6173286713    2.1362457591
N        3.3098066464    1.0782095624   -0.6385770791
N        1.5704318645   -0.5963330659    1.5128819206
H        0.6273347137   -3.0861592568   -3.1038431038
H       -1.0143652957   -3.1774808826   -1.2472576329
H        6.8739484066   -0.4127608965   -1.1534190919
H        6.5297110024    2.0489472545   -0.8109987762
H        2.6838948866   -1.7505877984   -2.8570770851
H       -0.5617824011   -2.0070311308    0.8510439763
H        4.8386648796   -1.8752948942   -1.1487683587
H        4.2611090691    2.9304018171   -0.4998394893
H       -0.3372161374    0.3039975969    1.7057999583
H        0.7826502832    0.6559721835    3.0258337586
H        0.0293520008   -0.9542222786    2.9197750808
H        3.3401370169    0.3859302182    2.1431677493
H        3.5755606886   -1.3001958411    1.6077353436
H        2.8267751651   -0.9813122898    3.1652609225
29   

C        0.9611668341   -2.6128876881   -2.1172832069
C       -0.0102821872   -2.6103509980   -1.1255573753
C        5.9462028909    0.0614462978   -1.1272120223
C        5.7670957492    1.3805233066   -0.7321558278
C        2.1302638937   -1.8772435851   -1.9371131275
C        0.2040965264   -1.8910181292    0.0506736967
C        4.8262023330   -0.7627141227   -1.1259352988
C        4.4956215313    1.8225948708   -0.3555406312
C        2.3613215605   -1.1280225333   -0.7636400196
C        1.3849277220   -1.1540145169    0.2749929348
C        3.5733740465   -0.2628370353   -0.7303870079
C        0.4083676750   -0.0627561666    2.3171794181
C        2.8683034744   -0.5756916902    2.2299597423
N        3.4211507261    1.0226625513   -0.3550344380
N        1.5615120563   -0.5593024766    1.5494464475
H        0.8031420884   -3.1707406129   -3.0333277126
H       -0.9270655601   -3.1732348587   -1.2589000727
H        6.9206230602   -0.3114191606   -1.4257934846
H        6.5998910074    2.0720591935   -0.7139077996
H        2.8549540898   -1.8571910661   -2.7430765567
H       -0.5564921942   -1.9429245411    0.8171563328
H        4.9141601050   -1.8001095622   -1.4209036601
H        4.3713309469    2.8553169696   -0.0516027361
H       -0.3489723866    0.3516975453    1.6443008905
H        0.7221134756    0.7372859379    2.9949224494
H       -0.0328646093   -0.8731756609    2.9058319357
H        3.3096058252    0.4253676528    2.2385620376
H        3.5570219803   -1.2704681896    1.7402411975
H        2.7460427621   -0.9154095552    3.2629885849
29   

C        1.0242146606   -2.7125384104   -2.0523547872
C        0.0181865672   -2.6469571899   -1.1005575801
C        5.9337162519    0.1223499989   -1.2986084523
C        5.7821676611    1.3842220775   -0.7424020169
C        2.1987703122   -1.9877360223   -1.8652193818
C        0.2047793495   -1.8774246876    0.0462713003
C        4.8281771886   -0.7211891004   -1.2815601908
C        4.5522941030    1.7503276348   -0.1915577690
C        2.4117910602   -1.1865116099   -0.7181655487
C        1.3902951325   -1.1512207640    0.2807733150
C        3.6066856804   -0.2966030312   -0.7211571715
C        0.3676230922    0.0320403426    2.2495966579
C        2.7948121921   -0.6251077975    2.2995851341
N        3.4927001344    0.9315758963   -0.1771672848
N        1.5305691030   -0.5334774477    1.5479537938
H        0.8872139887   -3.3075273739   -2.9482264348
H       -0.9038329773   -3.1994259552   -1.2412307607
H        6.8785013776   -0.1950753166   -1.7278842542
H        6.6052357764    2.0873588678   -0.7277745503
H        2.9318733219   -2.0158374794   -2.6622106308
H       -0.5822854747   -1.8834298623    0.7873523028
H        4.9173293575   -1.7186850644   -1.6896139432
H        4.4484711387    2.7376680235    0.2428411148
H       -0.3479043281    0.4458161614    1.5321242155
H        0.6844904268    0.8456215477    2.9094517010
H       -0.1251501371   -0.7397039376    2.8493204422
H        3.2543566046    0.3629781633    2.3981255620
H        3.4996555348   -1.2986011685    1.8029480899
H        2.6058530638   -1.0276523844    3.2993735965
29   

C        1.0751968282   -2.7985034172   -1.9570082496
C        0.0433866105   -2.6735618974   -1.0428384406
C        5.8975174893    0.2212734655   -1.4557996234
C        5.7994423616    1.4059687072   -0.7440192333
C        2.2529186794   -2.0782119176   -1.7736044345
C        0.2086660890   -1.8505321751    0.0668467320
C        4.8055832124   -0.6398679989   -1.4232639813
C        4.6357236983    1.6775905043   -0.0253983781
C        2.4550287211   -1.2195321700   -0.6608442599
C        1.3962359170   -1.1277420378    0.3014249714
C        3.6355797977   -0.3075149943   -0.7014551603
C        0.3299902911    0.1644690693    2.1773460895
C        2.7006413722   -0.6503445229    2.3889597572
N        3.5903264434    0.8419674762    0.0017265140
N        1.4978831232   -0.4777441628    1.5550223628
H        0.9552825295   -3.4349109275   -2.8265246164
H       -0.8816377701   -3.2211674429   -1.1828684219
H        6.7948841122   -0.0279375798   -2.0128171009
H        6.6148218705    2.1180346380   -0.7330245035
H        2.9844272100   -2.1634532343   -2.5655505053
H       -0.5984048081   -1.8125696355    0.7851784555
H        4.8884077615   -1.5801562878   -1.9476363411
H        4.5727355597    2.6026216813    0.5355446556
H       -0.3392764090    0.5669701638    1.4105913831
H        0.6513876766    0.9973135456    2.8103269092
H       -0.2167797853   -0.5581616644    2.7913848720
H        3.1805327257    0.3161112298    2.5710972411
H        3.4217767936   -1.3159227211    1.9048479689
H        2.4286384099   -1.0977125262    3.3497060835
29   

C        1.1245077572   -2.8972434125   -1.8586664731
C        0.0825583743   -2.7387732936   -0.9648153942
C        5.8006965128    0.3909853762   -1.6592767173
C        5.8307639793    1.4145393561   -0.7290113629
C        2.2945541472   -2.1589674807   -1.6989524054
C        0.2334139368   -1.8663626059    0.1056964500
C        4.7151615829   -0.4789829747   -1.6275947294
C        4.7932510760    1.5245924155    0.1924907140
C        2.4829041409   -1.2337196012   -0.6328496113
C        1.4110289171   -1.1211462592    0.3171637431
C        3.6679133062   -0.3207191881   -0.6821049408
C        0.3025003287    0.3176528759    2.0512807825
C        2.5593211043   -0.7047254736    2.4913646345
N        3.7549422636    0.6810903444    0.2162149382
N        1.4684917731   -0.4203817588    1.5427627182
H        1.0221336151   -3.5818161645   -2.6931812179
H       -0.8358852614   -3.3016623479   -1.0864681464
H        6.5965846257    0.2706564812   -2.3870997426
H        6.6475705724    2.1246418916   -0.7065048905
H        3.0282637421   -2.3175679263   -2.4737207480
H       -0.5779232800   -1.8029674694    0.8177845484
H        4.7259604953   -1.2746461008   -2.3534585086
H        4.8257707390    2.3251662014    0.9220870691
H       -0.3254595256    0.6602339065    1.2229419205
H        0.6310921645    1.1989951485    2.6104268079
H       -0.2921503630   -0.3227902476    2.7104509839
H        3.0632571019    0.2230048771    2.7795943250
H        3.2983634978   -1.3774930646    2.0450807101
H        2.1610381442   -1.1888354822    3.3880582811
29   

C        1.2185382687   -2.9899739229   -1.7888564206
C        0.2062773073   -2.8682818045   -0.8540214987
C        5.6132454655    0.6394933019   -1.9216758075
C        5.9287288625    1.3395601922   -0.7703903603
C        2.3506686547   -2.1840670505   -1.6920659350
C        0.3494851348   -1.9577444325    0.1867602238
C        4.5030851516   -0.1978870931   -1.8817856355
C        5.1296857894    1.1841471612    0.3597565463
C        2.5151548490   -1.2122444079   -0.6666934756
C        1.4848189032   -1.1357076651    0.3225339213
C        3.7300446921   -0.3439813381   -0.7017562832
C        0.3314572736    0.5094969233    1.8001266658
C        2.4075631974   -0.6805069949    2.5713587028
N        4.0663923503    0.3719312448    0.3884766887
N        1.4994772531   -0.3203790209    1.4698542095
H        1.1311693957   -3.7129846379   -2.5920502293
H       -0.6803282310   -3.4885365324   -0.9203430150
H        6.2026408146    0.7498924913   -2.8261054906
H        6.7780053737    2.0101460633   -0.7402896046
H        3.1072409409   -2.3569970003   -2.4440594604
H       -0.4344725780   -1.9046431487    0.9304630369
H        4.2417659870   -0.7024313069   -2.7985045897
H        5.3775623727    1.7427581997    1.2546192479
H       -0.2640607376    0.7082599570    0.9034904023
H        0.6584815279    1.4700800384    2.2093868397
H       -0.2992677642    0.0004068910    2.5358766389
H        2.9351939472    0.2079221508    2.9315970621
H        3.1508466231   -1.4111362183    2.2365888917
H        1.8430982902   -1.1245397467    3.3968126971
29   

C        1.2679288883   -3.0448630207   -1.7394479079
C        0.2713158801   -2.9560986087   -0.7796430393
C        5.4248364941    0.8461536542   -1.9373900103
C        5.9274893851    1.2956897695   -0.7266361008
C        2.3735077390   -2.1993130736   -1.6668900818
C        0.3965651782   -2.0283024404    0.2516267562
C        4.3101930960    0.0154987481   -1.8983442164
C        5.3041982861    0.9073234774    0.4596578418
C        2.5180303704   -1.2332908567   -0.6401466605
C        1.5030560572   -1.1656709845    0.3552134321
C        3.7231937656   -0.3583729363   -0.6691720454
C        0.3249216275    0.5796332129    1.6708799158
C        2.3093790732   -0.6316407504    2.6227200207
N        4.2338275198    0.1031775503    0.4870872721
N        1.4955302292   -0.2812277137    1.4473158925
H        1.1894903466   -3.7726125703   -2.5392204553
H       -0.5931291662   -3.6086666585   -0.8249768510
H        5.8766317991    1.1392840487   -2.8794353494
H        6.7906582898    1.9479724748   -0.6902294229
H        3.1386988896   -2.3211964218   -2.4235667451
H       -0.3788763287   -1.9817546961    1.0048838027
H        3.8801043819   -0.3179508412   -2.8321722382
H        5.7024030970    1.2693233750    1.4002237062
H       -0.2276987244    0.7249188534    0.7372115301
H        0.6458699879    1.5614866017    2.0316339038
H       -0.3453565774    0.1259717847    2.4078792868
H        2.8649679165    0.2439754500    2.9716777467
H        3.0273167823   -1.4200052353    2.3748754176
H        1.6692645697   -0.9992606300    3.4304451923
29   

C        1.3276539465   -3.1265608919   -1.6684374158
C        0.3213925658   -3.0288393119   -0.7159203882
C        5.2665340984    1.0029324361   -1.9004759171
C        5.9152768562    1.2700691447   -0.7036368540
C        2.4215731079   -2.2641604037   -1.6068046119
C        0.4208954624   -2.0707812699    0.2929780387
C        4.1583415234    0.1646055294   -1.8514543005
C        5.4403757580    0.6975752676    0.4786816659
C        2.5402204025   -1.2863573189   -0.5942492660
C        1.5156377166   -1.1928646973    0.3818408038
C        3.7219663395   -0.3814695332   -0.6292212033
C        0.3147718280    0.5972578371    1.6075824202
C        2.3034728557   -0.5494120383    2.6253320111
N        4.3741048070   -0.1126235608    0.5161220552
N        1.4987064713   -0.2557628210    1.4282812038
H        1.2637268955   -3.8710585509   -2.4539188377
H       -0.5335027603   -3.6943660683   -0.7530583199
H        5.6059929811    1.4351120519   -2.8361267182
H        6.7822371155    1.9176711457   -0.6742813267
H        3.1991942812   -2.3655444994   -2.3552088208
H       -0.3640995629   -2.0099665440    1.0351997257
H        3.6115844972   -0.0564791561   -2.7583786330
H        5.9566446561    0.9146839268    1.4063776127
H       -0.2156178349    0.7195230785    0.6578427902
H        0.6176702820    1.5891269929    1.9565392716
H       -0.3689363462    0.1517258887    2.3371115562
H        2.8951126303    0.3265087822    2.9074350235
H        2.9860712215   -1.3845426866    2.4383608960
H        1.6526371966   -0.8295745302    3.4592130339
29   

C        1.3641929402   -3.1954182544   -1.6151532839
C        0.3261938302   -3.0600918300   -0.6998193539
C        5.1287156387    1.1360097843   -1.8149923585
C        5.9125744892    1.2292858011   -0.6732062775
C        2.4617547886   -2.3379217172   -1.5440612111
C        0.3962934674   -2.0691189368    0.2811588660
C        4.0227782745    0.2952331894   -1.7604499505
C        5.5693172872    0.4880543958    0.4608969152
C        2.5493869017   -1.3370278212   -0.5557260853
C        1.4956787001   -1.1978159683    0.3785327543
C        3.7216987453   -0.4154451732   -0.5864324380
C        0.2632204503    0.5977926124    1.5701379681
C        2.3254983322   -0.4271249376    2.5694321454
N        4.5030828741   -0.3228282442    0.5039589801
N        1.4718342054   -0.2199657215    1.3880401501
H        1.3202983189   -3.9625349515   -2.3799489404
H       -0.5316333947   -3.7213086438   -0.7452818995
H        5.3666816195    1.6977640817   -2.7123433268
H        6.7859571376    1.8684900759   -0.6504593945
H        3.2643424533   -2.4505334557   -2.2644259380
H       -0.4137654027   -1.9805475353    0.9928276022
H        3.3730332241    0.1895182648   -2.6193574530
H        6.1924780688    0.5688438663    1.3437648639
H       -0.2718136870    0.7047232130    0.6211496541
H        0.5375473776    1.5986116720    1.9173933042
H       -0.4049732780    0.1335498909    2.3023346094
H        2.9558965336    0.4502345383    2.7407508984
H        2.9688001384   -1.3026110273    2.4360447032
H        1.7075266603   -0.6050040446    3.4548387555
29   

C        1.4039617449   -3.2642754299   -1.5760966227
C        0.3264962966   -3.0796402130   -0.7156741175
C        4.9992165531    1.2815312237   -1.6908811594
C        5.9146696094    1.1988236898   -0.6502449488
C        2.5073332466   -2.4157360139   -1.4898751404
C        0.3635830473   -2.0508558552    0.2284985569
C        3.8977449917    0.4349975750   -1.6372236675
C        5.6995923033    0.2863021318    0.3867600470
C        2.5583084555   -1.3783464323   -0.5403298445
C        1.4700021642   -1.1892996477    0.3425913224
C        3.7321844934   -0.4523649052   -0.5630165356
C        0.1926967314    0.5833174615    1.5378446284
C        2.3834242593   -0.2471885557    2.4406829612
N        4.6351801115   -0.5277637429    0.4298529536
N        1.4344398243   -0.1740773367    1.3172646294
H        1.3852529064   -4.0609997003   -2.3110487271
H       -0.5363544308   -3.7332378078   -0.7743241049
H        5.1356592904    1.9781898151   -2.5115449806
H        6.7927704275    1.8317265422   -0.6326149458
H        3.3407486272   -2.5574309735   -2.1690285570
H       -0.4772850719   -1.9315605804    0.8983675590
H        3.1480828088    0.4547432443   -2.4175629638
H        6.4244595796    0.2315438440    1.1904406130
H       -0.3670776120    0.6786893604    0.6019982180
H        0.4272442132    1.5916381110    1.8927135902
H       -0.4352521706    0.0794522159    2.2793809528
H        3.0370638025    0.6296577105    2.4457971720
H        2.9962884982   -1.1514422996    2.3746896451
H        1.8400648430   -0.2952496242    3.3893144030
29   

C        1.4309652983   -3.3494776945   -1.5145591764
C        0.3202466439   -3.1137593122   -0.7101068881
C        4.8668682994    1.4334949896   -1.4676819087
C        5.9028795838    1.1661446975   -0.5821367873
C        2.5372175078   -2.5052341735   -1.4251361262
C        0.3284615119   -2.0421827829    0.1867498907
C        3.7700533582    0.5798041458   -1.4389823386
C        5.8049734007    0.0742619565    0.2858596686
C        2.5532663036   -1.4205297239   -0.5308131465
C        1.4388224997   -1.1851560542    0.3065367206
C        3.7324648196   -0.4984879779   -0.5440002479
C        0.1293506869    0.5682514138    1.5127256462
C        2.4365208836   -0.0602526584    2.2845377023
N        4.7432194702   -0.7445978075    0.3071445598
N        1.3947135720   -0.1339502346    1.2457648905
H        1.4358048883   -4.1820117653   -2.2088936948
H       -0.5452160198   -3.7635010157   -0.7728597952
H        4.9092500164    2.2737307569   -2.1529924766
H        6.7847759062    1.7934765461   -0.5555125932
H        3.3981834727   -2.6833569808   -2.0599289581
H       -0.5377737640   -1.8927735133    0.8166717744
H        2.9274140570    0.7365842370   -2.0998802482
H        6.6216046133   -0.1207958197    0.9710050294
H       -0.4582957202    0.6567029543    0.5934423766
H        0.3315678484    1.5798882542    1.8781235651
H       -0.4559591667    0.0281892326    2.2635617830
H        3.0791009989    0.8096216852    2.1221687272
H        3.0478353572   -0.9676915726    2.2869320940
H        1.9752844118    0.0142443318    3.2740531513
29   

C        1.4812521050   -3.4271056337   -1.4971660689
C        0.3422096620   -3.1545380861   -0.7456834461
C        4.7922999974    1.5556401249   -1.1829021276
C        5.9258304632    1.1182126155   -0.5095725606
C        2.5857938817   -2.5812709950   -1.4043530691
C        0.3217873837   -2.0480460961    0.1077674888
C        3.6942679530    0.7033639473   -1.1991560113
C        5.9184359961   -0.1322512769    0.1165779884
C        2.5690204850   -1.4542970481   -0.5644046727
C        1.4305544742   -1.1887652107    0.2332051341
C        3.7544909867   -0.5434834537   -0.5614832982
C        0.0903205733    0.5489693609    1.4393260906
C        2.4607430664    0.0688823642    2.1241979239
N        4.8546742695   -0.9487047579    0.0968684957
N        1.3722041095   -0.1126551813    1.1467091208
H        1.5101304969   -4.2900076175   -2.1527318295
H       -0.5219981399   -3.8055453587   -0.8124128791
H        4.7618324213    2.5227191951   -1.6740917368
H        6.8141534413    1.7351651147   -0.4617054685
H        3.4710715848   -2.7889613437   -1.9953726895
H       -0.5656083515   -1.8785064352    0.7018178308
H        2.7755606224    0.9882555560   -1.6956140452
H        6.8095045301   -0.4571266270    0.6408256057
H       -0.5154893044    0.6240408524    0.5306895286
H        0.2666179051    1.5648960584    1.8063214515
H       -0.4640888577   -0.0119660727    2.1982698780
H        3.0448266781    0.9624639723    1.8865275946
H        3.1222258582   -0.8024640814    2.1378856056
H        2.0464495923    0.1685999008    3.1321350798
29   

C        1.5072461639   -3.4754030876   -1.4355061368
C        0.3465821484   -3.1716470799   -0.7316040272
C        4.7624618433    1.6086906452   -0.9503006843
C        5.9623647694    1.0600953311   -0.5159431767
C        2.6103103705   -2.6280801401   -1.3425161351
C        0.3043815277   -2.0345085982    0.0790740059
C        3.6503845866    0.7749936354   -0.9633971064
C        6.0051504363   -0.2786146554   -0.1137102555
C        2.5725415070   -1.4650597727   -0.5519680131
C        1.4116272999   -1.1728724273    0.2061564846
C        3.7603927920   -0.5630052642   -0.5562964852
C        0.0469805265    0.5747547854    1.3740189351
C        2.4195143671    0.1379834926    2.0773594932
N        4.9277628051   -1.0771936326   -0.1290380705
N        1.3371424975   -0.0787038130    1.0987540001
H        1.5546464248   -4.3635996032   -2.0552164820
H       -0.5167759187   -3.8236570149   -0.7994691112
H        4.6928443471    2.6448406780   -1.2648769910
H        6.8647706378    1.6573126662   -0.4835976721
H        3.5119775139   -2.8613247289   -1.8985312075
H       -0.5992369779   -1.8458691112    0.6419529750
H        2.6823666105    1.1426635442   -1.2794876185
H        6.9486037022   -0.6902762809    0.2251508639
H       -0.5544684159    0.6304629485    0.4610994233
H        0.2109489985    1.5976723422    1.7270131681
H       -0.5060874218    0.0197082862    2.1383047971
H        2.9407634403    1.0769244765    1.8700822110
H        3.1411144254   -0.6842733523    2.0556201706
H        2.0060523083    0.1736740868    3.0899748405
29   

C        1.5888516449   -3.5243918424   -1.3927983853
C        0.3970825545   -3.2066379533   -0.7526322969
C        4.7872719041    1.6269806946   -0.7861014758
C        6.0203853778    1.0231803198   -0.5781510819
C        2.6832741192   -2.6695528451   -1.2746198777
C        0.3163171263   -2.0486411256    0.0228445379
C        3.6652622874    0.8069716821   -0.7623589425
C        6.0861936382   -0.3559651052   -0.3584639020
C        2.6133393498   -1.4811213530   -0.5192632552
C        1.4142511182   -1.1789612701    0.1763363394
C        3.7949077585   -0.5726548544   -0.5330450299
C       -0.0048870575    0.5728186723    1.2729746252
C        2.3312566927    0.1372267315    2.0880127808
N        4.9995270539   -1.1416617424   -0.3372071845
N        1.2978747787   -0.0784533705    1.0571316370
H        1.6673433554   -4.4282992402   -1.9860695824
H       -0.4603902332   -3.8638640187   -0.8415256779
H        4.7004829548    2.6940948504   -0.9624944774
H        6.9317555222    1.6074573173   -0.5865767231
H        3.6036350031   -2.9174209402   -1.7926618292
H       -0.6117684521   -1.8514213499    0.5411264797
H        2.6764199758    1.2187273552   -0.9202966947
H        7.0564379779   -0.8118519671   -0.1997156923
H       -0.5701510919    0.6148690815    0.3365078707
H        0.1410036515    1.6004566725    1.6200689247
H       -0.5856776092    0.0244115051    2.0213850116
H        2.8098840071    1.1112623948    1.9515146265
H        3.0976489444   -0.6429455386    2.0503956757
H        1.8788903690    0.0972871749    3.0837465371
29   

C        1.6298255812   -3.5472801492   -1.3071590398
C        0.4174632229   -3.2092297674   -0.7233936541
C        4.8332638526    1.6366266070   -0.6564600811
C        6.0670054578    1.0015560581   -0.6803200604
C        2.7221848033   -2.6928292864   -1.1728786520
C        0.3149709695   -2.0310646150    0.0147142682
C        3.7030427635    0.8320038416   -0.5703258955
C        6.1253966643   -0.3932090551   -0.6260031916
C        2.6407901632   -1.4782233734   -0.4509408423
C        1.4099696900   -1.1605062222    0.1859902477
C        3.8225811650   -0.5678858160   -0.4941455884
C       -0.0449975351    0.6099493962    1.2047929157
C        2.2379047975    0.1412470194    2.1437565951
N        5.0313623952   -1.1640240481   -0.5426286053
N        1.2600257449   -0.0562191682    1.0567090270
H        1.7265669531   -4.4660594939   -1.8743406002
H       -0.4390395320   -3.8656346220   -0.8265327383
H        4.7510428148    2.7171506339   -0.7118522359
H        6.9837357471    1.5733064902   -0.7491406214
H        3.6478819148   -2.9686145501   -1.6664348078
H       -0.6304782106   -1.8192866792    0.4943687025
H        2.7186975712    1.2812452942   -0.5765111415
H        7.0957261719   -0.8749215743   -0.6547061966
H       -0.5708527417    0.6372238000    0.2450834926
H        0.0953656505    1.6431406320    1.5372326941
H       -0.6613929770    0.0812026002    1.9387933638
H        2.6805120348    1.1397252523    2.0818071569
H        3.0395155200   -0.6021007860    2.0968090984
H        1.7444862896    0.0282439094    3.1140932277
29   

C        1.6739354128   -3.5814767417   -1.2154306898
C        0.4449273035   -3.2189527229   -0.6899607335
C        4.9048736969    1.6314224919   -0.5341877256
C        6.1078253665    0.9917777741   -0.7900617573
C        2.7662410375   -2.7290748648   -1.0712111741
C        0.3271881449   -2.0187358620    0.0048145733
C        3.7742362605    0.8355657868   -0.3883044607
C        6.1342123394   -0.3984757697   -0.9046639305
C        2.6785006656   -1.4835039619   -0.3918546848
C        1.4210212341   -1.1488034358    0.1879897535
C        3.8612798843   -0.5702685624   -0.4669861187
C       -0.0577084693    0.6535355048    1.1119532207
C        2.1410576201    0.1150886159    2.2050958698
N        5.0405885380   -1.1601828051   -0.7607882054
N        1.2385900941   -0.0429819741    1.0487959424
H        1.7848609940   -4.5180879662   -1.7499457368
H       -0.4120133889   -3.8731962745   -0.8027405098
H        4.8429639627    2.7125542542   -0.4658445558
H        7.0219829227    1.5576812747   -0.9168054983
H        3.6933315311   -3.0440217431   -1.5369959917
H       -0.6321101243   -1.7889657743    0.4473034122
H        2.8182302484    1.3171956400   -0.2447152215
H        7.0779017018   -0.8850437849   -1.1216950996
H       -0.5367984588    0.6595771714    0.1276741861
H        0.0886365910    1.6939064848    1.4182150206
H       -0.7200431280    0.1605840247    1.8307353635
H        2.5423206286    1.1323858694    2.2381849717
H        2.9786314388   -0.5871774767    2.1534270426
H        1.5969445204   -0.0856174939    3.1332375327
29   

C        1.7759619348   -3.6107623121   -1.0068551652
C        0.8435593611   -3.4940553572    0.0081143571
C        5.2567074788    1.4652704852   -0.0953267394
C        6.0568918637    1.1373290631   -1.1762931682
C        2.6686678440   -2.5695434475   -1.2501785209
C        0.7900191024   -2.3181157936    0.7475285862
C        4.1396353856    0.6720679415    0.1438488847
C        5.7265953864    0.0322360427   -1.9572725110
C        2.6706005399   -1.3604149045   -0.4942375382
C        1.6638153730   -1.2388202536    0.5075315017
C        3.8096242397   -0.4083300550   -0.7081950655
C        0.9819329691    1.1337898521    0.3878056699
C        0.9658891970   -0.0611519678    2.6018847811
N        4.6464128405   -0.7251895002   -1.7228922329
N        1.3816632303   -0.0378770809    1.1890073838
H        1.8237534010   -4.5149182725   -1.6030868737
H        0.1491032901   -4.3016974947    0.2094438760
H        5.5009939380    2.2995813736    0.5539749644
H        6.9415734307    1.7157962498   -1.4100524967
H        3.3941006694   -2.7467626510   -2.0358375609
H        0.0141328637   -2.2308347794    1.4956736461
H        3.5654741111    0.8959079237    1.0266424680
H        6.3702595929   -0.2285630866   -2.7891729472
H        1.3217082019    1.0358236102   -0.6479234963
H        1.4189701931    2.0458158048    0.8056426949
H       -0.1083769444    1.2286206066    0.3811616929
H        1.3142369999    0.8425682563    3.1111431981
H        1.4014149102   -0.9244411731    3.1151920708
H       -0.1248907891   -0.1162207174    2.6764420581
