15   

C        2.3735518359   -0.8682187565   -1.0115462200
C        1.3057966043   -1.3292230266   -0.2891817577
C        3.4829494026   -1.6362979520   -1.7090710822
C       -0.8572749345   -0.4581752180   -1.1956085153
C       -0.0969922014   -1.7006085788   -0.7412463602
H        2.7543750923    0.0793912927   -0.6454440132
H        1.2943027767   -0.9854577612    0.7397291279
H        4.3819936491   -1.0183522753   -1.7920005276
H        3.1610969146   -1.9269252104   -2.7132604207
H        3.7274303648   -2.5397558633   -1.1427134537
H       -0.3416427668    0.0202399974   -2.0339640303
H       -0.9343494203    0.2587944013   -0.3719122386
H       -1.8673359090   -0.7332214971   -1.5142207801
H       -0.6345861222   -2.1731944888    0.0870455598
H       -0.0376886235   -2.4217867015   -1.5626695085
15   

C        2.4056407375   -0.8120111949   -0.9165608482
C        1.3162227935   -1.2303407743   -0.2171538569
C        3.3824520756   -1.6530253005   -1.7135338488
C       -0.8744000333   -0.4707609088   -1.1469940340
C       -0.0284022049   -1.6789077656   -0.7560494253
H        2.9116257172    0.0285621548   -0.4534330023
H        1.2399774111   -0.8349721969    0.7902980082
H        3.3330583035   -1.3801556047   -2.7716407620
H        3.1386520599   -2.7149616778   -1.6127291526
H        4.4029974872   -1.4916181074   -1.3537933779
H       -0.3686598564    0.1133588406   -1.9221887350
H       -1.0448003378    0.1698889751   -0.2759111578
H       -1.8436347582   -0.8014911130   -1.5324842295
H       -0.5521480875   -2.2623434146    0.0078648787
H        0.1227307013   -2.3215910400   -1.6293551326
15   

C        2.4586566581   -0.7799995848   -0.8202286628
C        1.3375753500   -1.1406327736   -0.1543898557
C        3.3012202945   -1.6572509270   -1.7196575644
C       -0.8889084460   -0.4954327269   -1.0774694172
C        0.0474580380   -1.6562206776   -0.7552464257
H        3.0362794936   -0.0003295965   -0.3350081517
H        1.2096883174   -0.6934122112    0.8257700167
H        3.2221656536   -1.3146691338   -2.7554959885
H        2.9619200497   -2.6961963526   -1.6657625963
H        4.3504395944   -1.6153336234   -1.4125382977
H       -0.4183720113    0.1826046031   -1.7965288604
H       -1.1282321694    0.0641089291   -0.1677216129
H       -1.8196422517   -0.8744919309   -1.5104652397
H       -0.4374284496   -2.3381079324   -0.0494990036
H        0.2642414982   -2.2152487614   -1.6712668332
15   

C        2.5138212965   -0.7852841050   -0.7248321681
C        1.3526283772   -1.0710969314   -0.1035017083
C        3.2401527660   -1.6516475141   -1.7252620886
C       -0.8787246281   -0.5176972735   -1.0639909702
C        0.1027505786   -1.6384091936   -0.7347261905
H        3.1500031386   -0.0738017722   -0.2091069286
H        1.1980534558   -0.5966433971    0.8598424372
H        3.1347069078   -1.2309010136   -2.7294966343
H        2.8315546906   -2.6666932082   -1.7230047484
H        4.3037835540   -1.7044068449   -1.4746334172
H       -0.4253277548    0.1874103773   -1.7679379345
H       -1.1603701027    0.0218926257   -0.1543603944
H       -1.7829083784   -0.9337909221   -1.5187399852
H       -0.3641131599   -2.3482180330   -0.0445563646
H        0.3576827049   -2.1781594708   -1.6522562226
15   

C        2.5561628544   -0.8140512040   -0.6487534651
C        1.3571190314   -1.0128242777   -0.0739639107
C        3.1924969110   -1.6343942060   -1.7421561437
C       -0.8451430797   -0.5312426276   -1.1269057056
C        0.1331565492   -1.6246623341   -0.7090658792
H        3.2375440700   -0.1717055339   -0.1010543082
H        1.1934792296   -0.5263075050    0.8817984816
H        3.0576138443   -1.1385497932   -2.7078517835
H        2.7450404429   -2.6314976755   -1.7895957355
H        4.2637437730   -1.7466649883   -1.5507118998
H       -0.3769469835    0.1369001626   -1.8566840430
H       -1.1545771496    0.0559395239   -0.2565855717
H       -1.7343534726   -0.9786750204   -1.5814812031
H       -0.3502906070   -2.2957714732    0.0078916016
H        0.4119844298   -2.2158492715   -1.5865594858
15   

C        2.5950509397   -0.8605971049   -0.5973056442
C        1.3552621282   -0.9499445984   -0.0894228483
C        3.1754760651   -1.6369920841   -1.7499758663
C       -0.8785901401   -0.5409448124   -1.1028353379
C        0.1460719659   -1.6006631993   -0.7101709436
H        3.3039294865   -0.2763224588   -0.0202594908
H        1.1797312541   -0.4213669033    0.8415899214
H        3.0192422241   -1.0910964394   -2.6850022964
H        2.7075923387   -2.6224047185   -1.8301918179
H        4.2499417532   -1.7792605358   -1.6013238166
H       -0.4473321244    0.1486485324   -1.8354675150
H       -1.1950371362    0.0286181466   -0.2234392309
H       -1.7581086554   -1.0176421365   -1.5464582617
H       -0.3009476973   -2.2937536936    0.0095019142
H        0.4283747849   -2.1749076782   -1.5974140472
15   

C        2.6215789214   -0.9209637067   -0.5384793496
C        1.3553191364   -0.8997938485   -0.0946607957
C        3.1620882680   -1.6334934833   -1.7499135504
C       -0.8295596143   -0.5455147805   -1.2309723862
C        0.1518582677   -1.5814066917   -0.6922834593
H        3.3364028865   -0.3266786100    0.0207188650
H        1.1745453486   -0.3306697224    0.8110716409
H        4.0926206866   -1.1607747251   -2.0777337878
H        2.4456442606   -1.5902335385   -2.5754348875
H        3.3656879476   -2.6809177084   -1.5086765629
H       -0.3559811616    0.0545750051   -2.0142410669
H       -1.1605336534    0.1189305716   -0.4265231103
H       -1.7063406105   -1.0458007608   -1.6535802359
H       -0.3411642535   -2.1805510667    0.0798068998
H        0.4504920189   -2.2598682510   -1.4969430246
15   

C        2.6382275601   -0.9874289253   -0.4970521143
C        1.3537414163   -0.8493666195   -0.1314755761
C        3.1723854545   -1.6360527949   -1.7471626238
C       -0.8576547320   -0.5480901918   -1.2345688765
C        0.1500260188   -1.5587287161   -0.6965001268
H        3.3644631222   -0.4463219764    0.1001600188
H        1.1705984479   -0.2399305831    0.7471713785
H        4.1017328172   -1.1472970414   -2.0542393143
H        2.4520845531   -1.5501040464   -2.5660789940
H        3.3761980389   -2.6947380537   -1.5617594460
H       -0.4083378798    0.0453759031   -2.0369249531
H       -1.1848150555    0.1250654962   -0.4358435365
H       -1.7337356853   -1.0697624311   -1.6320912570
H       -0.3202223680   -2.1512794681    0.0946610203
H        0.4453763247   -2.2465268912   -1.4945507495
15   

C        2.6493203642   -1.0582482440   -0.4696822067
C        1.3591320631   -0.8036372281   -0.1897052184
C        3.2062787545   -1.6417884333   -1.7433231483
C       -0.9065933334   -0.5466122402   -1.1970104773
C        0.1462692589   -1.5359306173   -0.7078342462
H        3.3754957944   -0.5662051948    0.1686578968
H        1.1769302634   -0.1409637257    0.6497664697
H        4.1432767966   -1.1419011616   -2.0060976396
H        2.5010099321   -1.5098710439   -2.5693436427
H        3.4018887677   -2.7099299231   -1.6109995009
H       -0.5054177841    0.0605513569   -2.0145231979
H       -1.2157612739    0.1151609000   -0.3818499653
H       -1.7860498632   -1.0870867061   -1.5605692515
H       -0.2763589496   -2.1440075235    0.0982888750
H        0.4252726868   -2.2104858017   -1.5231662387
15   

C        2.6547186892   -1.1314100546   -0.4575390815
C        1.3706826846   -0.7701340745   -0.2670733459
C        3.2662222370   -1.6460291784   -1.7389919245
C       -0.9574225101   -0.5447883864   -1.1445943307
C        0.1383665772   -1.5181182867   -0.7216335366
H        3.3674170740   -0.6840537440    0.2272220642
H        1.1955288195   -0.0467793034    0.5223628405
H        4.2125887171   -1.1337344518   -1.9361596479
H        2.5929346832   -1.4701955329   -2.5834797501
H        3.4567607492   -2.7200970635   -1.6569965826
H       -0.6126202530    0.0741344759   -1.9788904464
H       -1.2332824871    0.1064754079   -0.3093614031
H       -1.8456328701   -1.0989621596   -1.4635503935
H       -0.2273284565   -2.1412678272    0.1006724250
H        0.3863822923   -2.1783217041   -1.5587867002
15   

C        2.6322763615   -1.2128152787   -0.4682338122
C        1.3606485415   -0.7654941447   -0.3585020237
C        3.3354913951   -1.6467012173   -1.7357276380
C       -1.0253496080   -0.5335293705   -1.0825631733
C        0.0932923599   -1.5084043168   -0.7276899144
H        3.3149256562   -0.8077292360    0.2713295187
H        1.2062405096    0.0171485172    0.3769370748
H        4.2890186454   -1.1200436623   -1.8375920632
H        2.7170084318   -1.4232846791   -2.6104077513
H        3.5276318192   -2.7231777502   -1.7063578551
H       -0.7334493403    0.0810011066   -1.9400148376
H       -1.2456630477    0.1217689648   -0.2341714884
H       -1.9334370969   -1.0866300307   -1.3418413119
H       -0.2188496875   -2.1308188239    0.1169613758
H        0.2875112884   -2.1682137705   -1.5794537215
15   

C        2.6108296485   -1.2923018076   -0.5147432211
C        1.3471520620   -0.7909623224   -0.4775920429
C        3.4428644883   -1.6432349386   -1.7320459790
C       -1.0947085946   -0.5178061510   -0.9959393582
C        0.0363365049   -1.5098985856   -0.7402647845
H        3.2412700243   -0.9162588806    0.2842193294
H        1.2234354516    0.0603616520    0.1837092079
H        4.3928453227   -1.1009318928   -1.7110588278
H        2.9064319961   -1.3760151539   -2.6475692054
H        3.6489915881   -2.7173865563   -1.7464015090
H       -0.8666457094    0.0969768387   -1.8724187027
H       -1.2350727762    0.1360283556   -0.1296948492
H       -2.0286950715   -1.0572551002   -1.1814625709
H       -0.2115250246   -2.1367542615    0.1222290983
H        0.1494363180   -2.1635594184   -1.6111702284
15   

C        2.5863756649   -1.3695261418   -0.5843765006
C        1.3240329274   -0.8417411049   -0.6107319495
C        3.5568764243   -1.6376178147   -1.7219315120
C       -1.1540900803   -0.4992600847   -0.9074745086
C       -0.0303147194   -1.5212723827   -0.7560024768
H        3.1357730425   -1.1071106230    0.3136632896
H        1.2375871443    0.0725309944   -0.0328690264
H        3.4472938137   -0.8730528665   -2.4966689963
H        3.3529473892   -2.6174050849   -2.1633802622
H        4.5879382108   -1.6233705888   -1.3562312047
H       -0.9884415765    0.1138193792   -1.7990914618
H       -1.2012541995    0.1535606235   -0.0304942570
H       -2.1142709057   -1.0139340363   -1.0117997067
H       -0.2163149840   -2.1498880993    0.1206426962
H       -0.0133250486   -2.1696630442   -1.6378669041
