29   

C        1.8051223718    4.7066094895   -3.2802509105
C        1.9096617339    5.2524712275   -1.9990987541
C        1.1981870642    3.4612493840   -3.4547636012
C        1.4218091310    4.5473492974   -0.8928424842
C        0.7108759788    2.7569248394   -2.3481322140
C        0.8485549361    3.2749993255   -1.0405837177
C        0.2759675730    2.6257793909    0.1917838203
C       -0.6919814385   -1.5255706025   -0.0005335457
C        0.2354429269   -0.8698680814   -1.0321673960
C       -1.6710176167   -0.4827445520    0.5525885531
C        0.9697188032    0.3191611038   -0.4044036768
C       -0.9171522201    0.7123829088    1.1428515349
N       -0.0019222566    1.2700659541    0.1449486554
O       -0.0859388382    3.3083949139    1.1443469317
H        2.1786893256    5.2556646482   -4.1374143928
H        2.3610589270    6.2284111524   -1.8600493472
H        1.0895823695    3.0474576060   -4.4510163960
H        1.4934005494    4.9961230141    0.0931339306
H        0.1973778599    1.8186584701   -2.5206463334
H       -0.0945177831   -1.9376890414    0.8198951801
H       -1.2453345795   -2.3491882524   -0.4629191302
H       -0.3564526791   -0.5247061222   -1.8860010682
H        0.9616499889   -1.6025996983   -1.3974796182
H       -2.3062275673   -0.9339890504    1.3212395810
H       -2.3190822793   -0.1310843434   -0.2567536203
H        1.6386088757    0.7716245357   -1.1402211358
H        1.6067500048   -0.0439153107    0.4093676591
H       -1.6476898184    1.4606481762    1.4695511103
H       -0.3473248678    0.3961147451    2.0231834581
29   

C        1.8785084428    4.6475286789   -3.2837345337
C        2.0457693382    5.1570743079   -1.9934323432
C        1.1336025985    3.4817470833   -3.4782387779
C        1.4788441244    4.4951837114   -0.8980696840
C        0.5677954981    2.8210293726   -2.3822096756
C        0.7577989427    3.3052174171   -1.0702888146
C        0.1226482582    2.6820841782    0.1431417382
C       -0.6061605959   -1.5052701536   -0.0002297713
C        0.2652286329   -0.8015333038   -1.0491302306
C       -1.6089878023   -0.5085639015    0.5939227486
C        0.9714332822    0.4083329171   -0.4293109170
C       -0.8855936095    0.7065819838    1.1815933231
N       -0.0206725747    1.3103150615    0.1654569471
O       -0.3378685931    3.3865271648    1.0344786689
H        2.3137309747    5.1634282724   -4.1323730835
H        2.6077417062    6.0714236359   -1.8394750419
H        0.9829315962    3.0962880556   -4.4803701404
H        1.5977041803    4.9105076885    0.0978564978
H       -0.0388052800    1.9392289173   -2.5549294400
H        0.0298650233   -1.9036707181    0.7976481874
H       -1.1401426819   -2.3441831499   -0.4578897719
H       -0.3640358423   -0.4696232631   -1.8811981154
H        1.0081974423   -1.5010044684   -1.4446992036
H       -2.2056560450   -0.9944208354    1.3722811211
H       -2.2918088226   -0.1712225141   -0.1927049260
H        1.5967566464    0.8932686606   -1.1821712609
H        1.6494804006    0.0623559116    0.3582640419
H       -1.6363651150    1.4186169044    1.5413650182
H       -0.2792513061    0.4007757888    2.0408096356
29   

C        1.9172418501    4.5730241269   -3.2657272343
C        2.1254320268    5.0364167321   -1.9633478803
C        1.0663841728    3.4870281292   -3.4895601678
C        1.4897237337    4.4093908162   -0.8852766184
C        0.4321387393    2.8611189229   -2.4107180931
C        0.6528598945    3.3047590175   -1.0913114293
C       -0.0369390100    2.6934606582    0.0982890449
C       -0.5404260017   -1.5007786308    0.0025940175
C        0.2877762364   -0.7544775271   -1.0523564887
C       -1.5560376485   -0.5437351462    0.6396244457
C        0.9740737936    0.4646212356   -0.4284130514
C       -0.8519471197    0.6791392453    1.2351653816
N       -0.0318494650    1.3230502510    0.2065025505
O       -0.6073328824    3.4035325086    0.9178421913
H        2.4061338018    5.0621655339   -4.1008928154
H        2.7734423658    5.8876470993   -1.7871450596
H        0.8901685607    3.1358355942   -4.5000899471
H        1.6407344129    4.7847927489    0.1218930938
H       -0.2449542395    2.0343771796   -2.5954990650
H        0.1243657456   -1.8966962777    0.7778873513
H       -1.0620537077   -2.3452384442   -0.4591255831
H       -0.3690128169   -0.4258221503   -1.8642234944
H        1.0406261231   -1.4257626778   -1.4770145190
H       -2.1211057805   -1.0611779091    1.4211668784
H       -2.2660949358   -0.2099495859   -0.1241920425
H        1.5648692447    0.9792843367   -1.1893447526
H        1.6823405767    0.1271971017    0.3358425904
H       -1.6124364248    1.3600276771    1.6323544120
H       -0.2140924633    0.3734451061    2.0711229920
29   

C        1.9537027258    4.5060362119   -3.2911410574
C        2.2165424053    4.9180627948   -1.9810839208
C        1.0036882370    3.5085560620   -3.5293622828
C        1.5329467946    4.3300876313   -0.9102712197
C        0.3221703636    2.9216753359   -2.4574199226
C        0.5885659209    3.3207272298   -1.1339230950
C       -0.1414099641    2.7241810341    0.0409898917
C       -0.4752309817   -1.4453246012    0.0314762460
C        0.3247733307   -0.6782322330   -1.0309008872
C       -1.4862187251   -0.5070753865    0.7042571581
C        1.0098088160    0.5425335350   -0.4087693341
C       -0.7804054961    0.7150732536    1.2999777108
N        0.0032020765    1.3776856913    0.2551823682
O       -0.8203332341    3.4309238551    0.7753851881
H        2.4795891652    4.9653032115   -4.1207853717
H        2.9450488558    5.6988925479   -1.7935985757
H        0.7894654210    3.1950369642   -4.5449350634
H        1.7285616220    4.6627549102    0.1039778478
H       -0.4242248146    2.1580454812   -2.6475310460
H        0.2094092779   -1.8454882239    0.7869888580
H       -0.9987065361   -2.2884450876   -0.4306464074
H       -0.3513440680   -0.3477352560   -1.8260541181
H        1.0761848451   -1.3363723562   -1.4780880264
H       -2.0281517067   -1.0408921919    1.4911035854
H       -2.2169560048   -0.1704947801   -0.0386704198
H        1.5748687043    1.0726111009   -1.1790508331
H        1.7400497882    0.2089318943    0.3361540467
H       -1.5351732833    1.3810827062    1.7313776561
H       -0.1157158286    0.4048397955    2.1129005011
29   

C        1.9895112713    4.4306540687   -3.3297755821
C        2.2932149531    4.7752292770   -2.0090593371
C        0.9579354113    3.5244596629   -3.5926018439
C        1.5668771688    4.2125830212   -0.9528467427
C        0.2343294692    2.9629136227   -2.5347439844
C        0.5360635878    3.2990662160   -1.2029874935
C       -0.2392574638    2.7103111832   -0.0512225979
C       -0.4120255681   -1.4090489121    0.0438562045
C        0.3943535819   -0.6292089777   -1.0051471250
C       -1.4336585578   -0.4830378904    0.7191645956
C        1.0637223203    0.5939138195   -0.3700211020
C       -0.7383158884    0.7391765239    1.3275500621
N        0.0382313131    1.4124189910    0.2849942795
O       -1.0519163357    3.3874362720    0.5650805675
H        2.5481667882    4.8707035694   -4.1483487982
H        3.0872396269    5.4839742484   -1.8022259933
H        0.7139095433    3.2618371358   -4.6158647764
H        1.7970254687    4.4911855249    0.0701730553
H       -0.5720968005    2.2676173922   -2.7415075515
H        0.2685578618   -1.8130280330    0.8009020771
H       -0.9273701505   -2.2505031035   -0.4303477655
H       -0.2759460968   -0.2983818722   -1.8052309533
H        1.1548287262   -1.2789950943   -1.4491866090
H       -1.9756636007   -1.0270805682    1.4988738559
H       -2.1632457814   -0.1454014086   -0.0245501513
H        1.6282658457    1.1341132773   -1.1342837796
H        1.7909607204    0.2659115366    0.3802093204
H       -1.4945071569    1.3969348577    1.7688068759
H       -0.0699005775    0.4269173291    2.1365381770
29   

C        1.9597772438    4.4102608903   -3.3030147045
C        2.3244892278    4.6304121989   -1.9713058485
C        0.8475311196    3.6161170579   -3.5969084459
C        1.5784828776    4.0548856240   -0.9359369287
C        0.1047950337    3.0418474984   -2.5593022014
C        0.4674564300    3.2511289130   -1.2180446058
C       -0.3382812286    2.6448241007   -0.0958331504
C       -0.3290287554   -1.4195522370    0.0978552068
C        0.4854034623   -0.6210901424   -0.9315010723
C       -1.3826360678   -0.5166780200    0.7561662069
C        1.1142717620    0.6164796315   -0.2818338828
C       -0.7228576223    0.7185157937    1.3777610320
N        0.0518520592    1.4085301857    0.3454717757
O       -1.2834748295    3.2495576850    0.3933961774
H        2.5335601076    4.8603122639   -4.1055309659
H        3.1814626711    5.2529388576   -1.7397170901
H        0.5555866849    3.4506391188   -4.6279159325
H        1.8581498452    4.2372872118    0.0962021427
H       -0.7646167859    2.4350470537   -2.7887204583
H        0.3432409313   -1.8133214246    0.8675127922
H       -0.8180014121   -2.2690392322   -0.3898189286
H       -0.1735071342   -0.3032139777   -1.7463886680
H        1.2688112808   -1.2542657945   -1.3593001650
H       -1.9267055609   -1.0734409986    1.5253553633
H       -2.1060483879   -0.1927859489    0.0002880796
H        1.6808799733    1.1698133823   -1.0354471679
H        1.8321242376    0.3069739480    0.4850162076
H       -1.4954252087    1.3612945353    1.8127681867
H       -0.0581407582    0.4184864166    2.1943469678
29   

C        2.0135240867    4.4404971884   -3.3394677156
C        2.4312116273    4.4847831879   -2.0060939054
C        0.8140027126    3.8041184699   -3.6706060555
C        1.6517733947    3.8891113771   -1.0073823749
C        0.0384194811    3.2094883529   -2.6691505530
C        0.4557238615    3.2344389562   -1.3281257146
C       -0.4009551480    2.6217430880   -0.2491176929
C       -0.2782333812   -1.3978583867    0.1726470543
C        0.5546531749   -0.6283940718   -0.8638866564
C       -1.3707388669   -0.4891311664    0.7545084437
C        1.1374277500    0.6514740149   -0.2531815265
C       -0.7542779320    0.7849496065    1.3401302545
N        0.0389815591    1.4471841895    0.3035105214
O       -1.4451525128    3.1586354030    0.0978292292
H        2.6131459006    4.9064166497   -4.1135248542
H        3.3553256651    4.9878352766   -1.7443380073
H        0.4791084254    3.7780536085   -4.7015079764
H        1.9737852266    3.9386779248    0.0272550771
H       -0.9007000465    2.7304424282   -2.9253827632
H        0.3751077015   -1.7432744104    0.9808090841
H       -0.7340277497   -2.2778704260   -0.2925533190
H       -0.0833917125   -0.3615031898   -1.7131065008
H        1.3638058763   -1.2632973239   -1.2377535629
H       -1.9291323788   -1.0220623627    1.5302707157
H       -2.0748461583   -0.2137458444   -0.0380145100
H        1.7109770136    1.1804223218   -1.0186681882
H        1.8392158134    0.3949393438    0.5472906595
H       -1.5502523520    1.4312935144    1.7249070508
H       -0.1095099864    0.5337853979    2.1885639109
29   

C        2.0040072068    4.4822143880   -3.3445067026
C        2.4607582667    4.3647151827   -2.0288672009
C        0.7514330528    3.9697207446   -3.6920719946
C        1.6678471408    3.7296541807   -1.0656286703
C       -0.0370671459    3.3353889232   -2.7257706552
C        0.4186642098    3.1916231022   -1.4044098548
C       -0.4615813800    2.5462008064   -0.3670669440
C       -0.2496550132   -1.3958369449    0.2697916349
C        0.5921124939   -0.6574378111   -0.7817114349
C       -1.3544044255   -0.4743421053    0.8062015487
C        1.1566792461    0.6500643772   -0.2127202583
C       -0.7504336372    0.8229955920    1.3527194690
N        0.0449420713    1.4570684856    0.3002046945
O       -1.5792037459    2.9909078375   -0.1362023651
H        2.6141968961    4.9785567514   -4.0908919975
H        3.4260670770    4.7737572136   -1.7524430090
H        0.3850968151    4.0707635740   -4.7075436505
H        2.0224249248    3.6585755629   -0.0429621783
H       -1.0177502840    2.9554410457   -2.9931099093
H        0.3951373180   -1.7093365050    1.0975039359
H       -0.6944865689   -2.2939542003   -0.1708517296
H       -0.0364465298   -0.4275111896   -1.6487247931
H        1.4109667424   -1.2989272180   -1.1216791673
H       -1.9186231336   -0.9829551056    1.5939202701
H       -2.0511135434   -0.2312334744   -0.0033971455
H        1.7303197762    1.1521766876   -0.9953676811
H        1.8531197458    0.4317315445    0.6035831606
H       -1.5513341659    1.4789289931    1.7104693194
H       -0.1102707683    0.6047887307    2.2136211227
29   

C        1.9520996292    4.5616884992   -3.2966204203
C        2.4479142556    4.2845382218   -2.0202558847
C        0.6635371408    4.1491852553   -3.6430008595
C        1.6581560684    3.5898808287   -1.0962458673
C       -0.1211859997    3.4548749817   -2.7158434666
C        0.3702120281    3.1489363833   -1.4342014986
C       -0.5136245038    2.4340216378   -0.4489236937
C       -0.2068805220   -1.4248393774    0.4093632262
C        0.6235594621   -0.7225142959   -0.6741456493
C       -1.3228122146   -0.4943627380    0.9040898936
C        1.1701534754    0.6178455312   -0.1674010862
C       -0.7339407770    0.8331124040    1.3926495336
N        0.0519997049    1.4359654201    0.3146187933
O       -1.6806583454    2.7777435472   -0.3024833307
H        2.5601010304    5.1039095359   -4.0122305205
H        3.4419673470    4.6165172970   -1.7424520829
H        0.2664300749    4.3729969358   -4.6267756421
H        2.0482666260    3.4027621192   -0.1016267740
H       -1.1284051110    3.1515853671   -2.9834157021
H        0.4422037856   -1.6929680515    1.2494978808
H       -0.6401000776   -2.3470677767    0.0086906143
H       -0.0091373885   -0.5410961119   -1.5496569606
H        1.4510931767   -1.3668121157   -0.9867783014
H       -1.8813706267   -0.9746058238    1.7132798247
H       -2.0220836946   -0.2958800630    0.0844576893
H        1.7270116626    1.0877587747   -0.9810258839
H        1.8764607565    0.4484544637    0.6520657046
H       -1.5417763114    1.4951509706    1.7228632343
H       -0.0907675974    0.6598972760    2.2614430815
29   

C        1.9576457349    4.6534318079   -3.3048710592
C        2.4834968007    4.2306650394   -2.0824015188
C        0.6397864096    4.3349450246   -3.6362516872
C        1.6946936394    3.4849490725   -1.1979881731
C       -0.1435973524    3.5894616181   -2.7488446972
C        0.3730958681    3.1380447618   -1.5192833069
C       -0.5151527882    2.3495080386   -0.5965922448
C       -0.1957485627   -1.4182320162    0.4911354718
C        0.6390712078   -0.7725136583   -0.6224434695
C       -1.3094756008   -0.4601246888    0.9335639817
C        1.1886044293    0.5897315706   -0.1819590923
C       -0.7168891540    0.8878902488    1.3592034846
N        0.0777577817    1.4404006854    0.2603439713
O       -1.7123191561    2.6048727031   -0.5290699959
H        2.5656332487    5.2342045465   -3.9895689419
H        3.5016997100    4.4892180748   -1.8142184684
H        0.2192990719    4.6686873815   -4.5782794845
H        2.1177868688    3.1954378586   -0.2425233335
H       -1.1708836130    3.3555538656   -3.0104229039
H        0.4496022040   -1.6466075796    1.3457052065
H       -0.6308189313   -2.3574780006    0.1343254066
H        0.0087224087   -0.6326944741   -1.5072667263
H        1.4653806955   -1.4335656169   -0.9016496032
H       -1.8743850514   -0.8977463290    1.7622051918
H       -2.0038920543   -0.2999659569    0.1014167361
H        1.7402655075    1.0144013521   -1.0234634633
H        1.8982357390    0.4596606899    0.6418436913
H       -1.5235432558    1.5693644423    1.6508507895
H       -0.0802236012    0.7545644312    2.2396937455
29   

C        1.9379970527    4.7666769894   -3.2793091595
C        2.4990911457    4.2038504146   -2.1323674250
C        0.5950898340    4.5326155941   -3.5737639751
C        1.7207565962    3.4034737907   -1.2870287281
C       -0.1775005055    3.7324550494   -2.7257221609
C        0.3695258337    3.1418234348   -1.5677926079
C       -0.5160935644    2.2740913200   -0.7136222254
C       -0.2138863935   -1.4025497817    0.6069667704
C        0.6336748198   -0.8211195223   -0.5307169030
C       -1.3294996398   -0.4182116839    0.9791069702
C        1.1836104287    0.5613726200   -0.1601432078
C       -0.7380478216    0.9501016834    1.3384935622
N        0.0788736466    1.4458954107    0.2283664508
O       -1.7305411645    2.4451644195   -0.7227473000
H        2.5386701910    5.3885470181   -3.9336928208
H        3.5385420421    4.3956100145   -1.8909665675
H        0.1469384547    4.9712408337   -4.4582888796
H        2.1843815478    3.0175300259   -0.3869458764
H       -1.2218104135    3.5614109028   -2.9682203216
H        0.4206492090   -1.5838308747    1.4806674736
H       -0.6472575924   -2.3592277023    0.2974811870
H        0.0123021403   -0.7279428198   -1.4279721875
H        1.4604658477   -1.4985654233   -0.7658159521
H       -1.9085309898   -0.8076522772    1.8218588425
H       -2.0110032054   -0.3030748407    0.1289927166
H        1.7361481951    0.9360379012   -1.0247368171
H        1.8907469305    0.4741948468    0.6714587602
H       -1.5473670511    1.6491442512    1.5764488182
H       -0.1186226490    0.8636982728    2.2369004455
29   

C        1.8843181294    4.6142152898   -3.5347712784
C        2.1087693792    3.2655955302   -3.2594412784
C        0.8792083452    5.2956691835   -2.8508195157
C        1.3349775302    2.6027751988   -2.2986016715
C        0.1092918476    4.6286178503   -1.8925895931
C        0.3195241318    3.2657482849   -1.5883655174
C       -0.5218261705    2.6362666259   -0.5067391755
C        0.1629153345   -1.4314043251    0.6245742725
C        1.2845708289   -0.5652016155    0.0355370318
C       -1.1946185922   -0.9627524287    0.0853279187
C        1.0245151543    0.9123480108    0.3452778135
C       -1.4061411301    0.5279928536    0.3652742065
N       -0.2880606062    1.3022504040   -0.1759871354
O       -1.5363817505    3.1995287404   -0.1091435474
H        2.4821428262    5.1281742816   -4.2792062073
H        2.8799010770    2.7270020030   -3.7986702219
H        0.6926402791    6.3432889547   -3.0589118644
H        1.5230571917    1.5468214264   -2.1553995112
H       -0.6644561234    5.1810381741   -1.3684179405
H        0.1708551390   -1.3457131742    1.7166238899
H        0.3248409271   -2.4829851306    0.3671497982
H        1.3270741967   -0.7101699374   -1.0488656369
H        2.2479179235   -0.8688158721    0.4568229396
H       -2.0015595061   -1.5423852798    0.5444976800
H       -1.2309444496   -1.1306848245   -0.9958542914
H        1.8350641511    1.5289503191   -0.0507436690
H        1.0319011591    1.0558294769    1.4312902397
H       -2.3527840494    0.8435131703   -0.0871620000
H       -1.4788593204    0.6978256745    1.4451076911
29   

C        1.9442731600    4.5898244144   -3.4600812875
C        2.0409934178    3.2070855810   -3.2987280836
C        1.0114448124    5.3063177951   -2.7105684455
C        1.2120727534    2.5446799675   -2.3850198052
C        0.1859773585    4.6394970695   -1.7992914093
C        0.2739641300    3.2451463553   -1.6088681681
C       -0.6309372608    2.5946446853   -0.5969014588
C        0.2316531332   -1.3936548155    0.6690271863
C        1.3069854730   -0.5094071654    0.0239000526
C       -1.1534606906   -0.9865409860    0.1514994406
C        1.0102455645    0.9684910825    0.2974626050
C       -1.4113017209    0.5022115975    0.4007210547
N       -0.3338071959    1.3029228027   -0.1837076268
O       -1.6967363479    3.1201332992   -0.2940672052
H        2.5837507038    5.1038557660   -4.1690130612
H        2.7537372972    2.6436078973   -3.8903259557
H        0.9226470590    6.3798669682   -2.8339387966
H        1.2919362519    1.4664752856   -2.3181024317
H       -0.5366825969    5.2109092364   -1.2249462624
H        0.2645686068   -1.2749469422    1.7574936405
H        0.4224106882   -2.4464983683    0.4377941331
H        1.3232907462   -0.6854227614   -1.0565236272
H        2.2914860888   -0.7699980836    0.4246102329
H       -1.9285533434   -1.5823429640    0.6436427885
H       -1.2090072692   -1.1827971070   -0.9241422690
H        1.7880725731    1.5925170933   -0.1489610162
H        1.0535666092    1.1471948217    1.3773283037
H       -2.3796434352    0.7697134593   -0.0364840264
H       -1.4663512384    0.6958932540    1.4774497157
29   

C        2.0244826065    4.5798107011   -3.3812297722
C        2.0125687552    3.1844461586   -3.3307036864
C        1.1474834412    5.3070737270   -2.5749327278
C        1.1307516261    2.5196872818   -2.4700307991
C        0.2688256216    4.6376424175   -1.7165250315
C        0.2538436721    3.2319678160   -1.6370129072
C       -0.7185122337    2.5597071338   -0.7068303022
C        0.2716490658   -1.3418498885    0.6906430747
C        1.3120282524   -0.4458231946    0.0056053130
C       -1.1333760105   -0.9749615460    0.1974744305
C        0.9914272032    1.0304984534    0.2595238181
C       -1.4215054458    0.5107256868    0.4314669588
N       -0.3741550529    1.3262138034   -0.1870526446
O       -1.8289441020    3.0432438248   -0.5179149790
H        2.7038796528    5.0964054591   -4.0500376337
H        2.6807659194    2.6151585423   -3.9670417396
H        1.1415250383    6.3905289009   -2.6161706954
H        1.1198184415    1.4357149628   -2.4744718590
H       -0.4172499366    5.2112556982   -1.1011368076
H        0.3260531557   -1.2034289189    1.7758940853
H        0.4809350770   -2.3940634613    0.4729261219
H        1.3068631540   -0.6403976736   -1.0717033527
H        2.3111850813   -0.6784057710    0.3868190273
H       -1.8835171977   -1.5817723261    0.7141943014
H       -1.2070389616   -1.1881936314   -0.8739065256
H        1.7449220191    1.6583798090   -0.2213237129
H        1.0620737509    1.2319786762    1.3338573439
H       -2.4062908783    0.7457616726    0.0129055294
H       -1.4582606266    0.7190625498    1.5060897532
29   

C        2.0563993184    4.5566341306   -3.2888255320
C        1.9736791373    3.1633324171   -3.3478500468
C        1.2162778960    5.2636436702   -2.4258004509
C        1.0575696644    2.4799349764   -2.5394217527
C        0.3030651145    4.5754848538   -1.6195364950
C        0.2217359212    3.1717670371   -1.6503990003
C       -0.7972227827    2.4656673114   -0.7978951973
C        0.3209092320   -1.3298212575    0.7169883071
C        1.3227446647   -0.4144041575    0.0002404742
C       -1.1056521504   -0.9947931298    0.2637476031
C        0.9794813329    1.0563786695    0.2561074843
C       -1.4196904220    0.4847870176    0.5041907998
N       -0.4063923041    1.3168197263   -0.1485420159
O       -1.9472899387    2.8832148497   -0.7330793887
H        2.7615950192    5.0884343217   -3.9178349597
H        2.6129346116    2.6119024664   -4.0281386267
H        1.2644095110    6.3460600867   -2.3850123864
H        0.9877478327    1.4004321742   -2.6159892739
H       -0.3598693558    5.1305131914   -0.9633857301
H        0.4032663749   -1.1870577526    1.7998759537
H        0.5463162267   -2.3780118409    0.4959202117
H        1.2915463841   -0.6133411548   -1.0758337664
H        2.3369520812   -0.6244324045    0.3538146661
H       -1.8270750536   -1.6172463136    0.8022456381
H       -1.2053119122   -1.2117024863   -0.8048779315
H        1.7055674086    1.6942991030   -0.2527019583
H        1.0795313243    1.2677810586    1.3261222441
H       -2.4232636675    0.6949517152    0.1187802857
H       -1.4271759891    0.6956657925    1.5787629987
29   

C        2.0989296759    4.5257178836   -3.2484955041
C        1.9387690286    3.1466008006   -3.4083250349
C        1.3076736516    5.2131375048   -2.3245315900
C        0.9933970629    2.4570590410   -2.6399486660
C        0.3647487603    4.5191041652   -1.5582315601
C        0.2081405226    3.1291489630   -1.6930707911
C       -0.8442122980    2.4050396348   -0.8950834800
C        0.3295481662   -1.2700580904    0.7522144472
C        1.3086388095   -0.3507000495    0.0088012650
C       -1.1112557421   -0.9421211274    0.3387154171
C        0.9655332272    1.1194877974    0.2679699274
C       -1.4251248913    0.5364039660    0.5877353828
N       -0.4330125161    1.3659064177   -0.0996549513
O       -2.0180241288    2.7482669496   -0.9600292251
H        2.8264967363    5.0627933984   -3.8468051924
H        2.5406051045    2.6123076204   -4.1348626108
H        1.4163610705    6.2854813434   -2.2067769071
H        0.8620894555    1.3902342995   -2.7851365496
H       -0.2626446027    5.0582615759   -0.8558932499
H        0.4406932649   -1.1266873975    1.8323938471
H        0.5538031528   -2.3172725032    0.5253320515
H        1.2510449225   -0.5520366359   -1.0657838084
H        2.3326896946   -0.5548966035    0.3364928011
H       -1.8140975347   -1.5681373868    0.8972008515
H       -1.2398873906   -1.1599775447   -0.7267244005
H        1.6736086365    1.7562734428   -0.2675357944
H        1.0950461111    1.3397046119    1.3329711051
H       -2.4426780985    0.7421086886    0.2388666578
H       -1.3976828528    0.7496213569    1.6613825322
29   

C        2.1036020130    4.4907738320   -3.2036403791
C        1.8690548483    3.1392554909   -3.4732413626
C        1.3690974109    5.1375508245   -2.2057264102
C        0.9046654996    2.4360098669   -2.7418843754
C        0.4066550112    4.4304543963   -1.4763509332
C        0.1739387177    3.0681984938   -1.7274923633
C       -0.8892720635    2.3177926723   -0.9654632325
C        0.3475978085   -1.2116571133    0.7975674688
C        1.3039800753   -0.2719121851    0.0488841456
C       -1.1053921443   -0.9003435864    0.4119669874
C        0.9428594746    1.1920030830    0.3203676902
C       -1.4329054212    0.5727707173    0.6766053660
N       -0.4638988048    1.4114957359   -0.0312514368
O       -2.0758168345    2.5442644112   -1.1645103799
H        2.8460558223    5.0386119114   -3.7732269951
H        2.4284881475    2.6377342278   -4.2549439308
H        1.5378051619    6.1890031995   -2.0017966477
H        0.7163555127    1.3914457599   -2.9654910215
H       -0.1748950222    4.9382282809   -0.7140715968
H        0.4742855690   -1.0773274686    1.8771260981
H        0.5825420536   -2.2534822479    0.5569743231
H        1.2357050244   -0.4666423961   -1.0264086508
H        2.3351496363   -0.4631860818    0.3616720316
H       -1.7894916091   -1.5393397684    0.9788838415
H       -1.2508123396   -1.1129322597   -0.6524786767
H        1.6330725614    1.8407370964   -0.2249553898
H        1.0826439914    1.4127200556    1.3838932040
H       -2.4613764147    0.7713797226    0.3572408136
H       -1.3812269348    0.7818373619    1.7500901212
29   

C        2.0565429842    4.4477698745   -3.1558481366
C        1.7403814188    3.1434433229   -3.5480787253
C        1.4013645291    5.0234814187   -2.0632462344
C        0.7716494046    2.4161648933   -2.8466074454
C        0.4342729761    4.2931012908   -1.3634903557
C        0.1149901674    2.9794732965   -1.7455068607
C       -0.9363997098    2.1890865916   -1.0064844303
C        0.3889959148   -1.1655495499    0.8993527426
C        1.3185120370   -0.1964910105    0.1530968933
C       -1.0725167361   -0.9068261184    0.5051821010
C        0.9037617090    1.2563943616    0.4095582066
C       -1.4487485467    0.5570717847    0.7558127269
N       -0.5057580655    1.4164723704    0.0385988742
O       -2.1141816502    2.2558904308   -1.3332671259
H        2.8025347944    5.0141661909   -3.7021949937
H        2.2405119244    2.6973161323   -4.4003704741
H        1.6367128192    6.0380867437   -1.7619251049
H        0.5210157591    1.4085130314   -3.1606233399
H       -0.0814616090    4.7453652151   -0.5231289692
H        0.5046201923   -1.0223672030    1.9789508978
H        0.6610821468   -2.1997546101    0.6649939986
H        1.2667155165   -0.4004608748   -0.9215755916
H        2.3530588247   -0.3494214586    0.4755753987
H       -1.7371144256   -1.5634307573    1.0751265837
H       -1.2067849082   -1.1330402819   -0.5579926570
H        1.5752066988    1.9236295198   -0.1373220310
H        1.0242862120    1.4928236417    1.4719906640
H       -2.4832771154    0.7235529908    0.4375931296
H       -1.4028600635    0.7785045417    1.8270499747
29   

C        2.0604693629    4.4440653198   -3.1556831227
C        1.6625146836    3.2037609281   -3.6644145985
C        1.4914396725    4.9263195100   -1.9730880959
C        0.6971699379    2.4466717833   -2.9903364219
C        0.5275379437    4.1668962489   -1.3003987496
C        0.1238952267    2.9175151631   -1.8028996571
C       -0.9153942193    2.0836017344   -1.0971213059
C        0.4074770915   -1.1131110411    0.9826494275
C        1.3377823364   -0.1361120612    0.2473899774
C       -1.0472603145   -0.8944932842    0.5417372520
C        0.8830217416    1.3125730233    0.4596733129
C       -1.4592263203    0.5658726061    0.7525164555
N       -0.5168262311    1.4292583557    0.0394896749
O       -2.0533732170    1.9966185461   -1.5402649367
H        2.8040059979    5.0333747457   -3.6807273666
H        2.0966599956    2.8304487768   -4.5851317389
H        1.7921030157    5.8911897881   -1.5803658036
H        0.3823067962    1.4896076579   -3.3928803648
H        0.0812231278    4.5464867520   -0.3875571692
H        0.4876959025   -0.9488864493    2.0624053469
H        0.7090684775   -2.1448305436    0.7748387363
H        1.3246261489   -0.3622182032   -0.8241454534
H        2.3649231818   -0.2590882461    0.6044191350
H       -1.7140549471   -1.5537997202    1.1059265896
H       -1.1466698516   -1.1440302154   -0.5201365297
H        1.5563634439    1.9803899484   -0.0837078040
H        0.9649179538    1.5758977227    1.5194076704
H       -2.4890459504    0.7078630148    0.4079658982
H       -1.4433673198    0.8100404937    1.8196499559
29   

C        1.8501891490    4.4523160745   -3.1940661458
C        0.5185081638    4.5713999053   -2.7843851683
C        2.7419270822    3.6775801243   -2.4462221208
C        0.0784906654    3.9138730771   -1.6296048420
C        2.2998972045    3.0201624985   -1.2926830315
C        0.9593508783    3.1269401888   -0.8775414477
C        0.4508480617    2.4438189795    0.3644946993
C       -1.2071236135   -1.1875490978    0.0749884003
C       -0.6637618142   -0.4025452330   -1.1283793524
C       -1.2896918170   -0.2768344623    1.3084486026
C        0.6866006481    0.2437798244   -0.7960666251
C        0.0739894208    0.3585588630    1.5973269493
N        0.5268349420    1.0730192780    0.4028019599
O       -0.0086205668    3.0988394842    1.2918109325
H        2.1919857603    4.9659446577   -4.0857806056
H       -0.1732690487    5.1788968858   -3.3570556585
H        3.7773427827    3.5915361852   -2.7562241751
H       -0.9522151275    4.0187942290   -1.3066933186
H        2.9970004841    2.4288145605   -0.7088160808
H       -0.5417329708   -2.0302525585    0.2900830890
H       -2.1980486036   -1.5905165985   -0.1581041756
H       -1.3784423976    0.3821951515   -1.3986688034
H       -0.5549263807   -1.0685514934   -1.9898924944
H       -1.6243485712   -0.8510404719    2.1778326167
H       -2.0226319402    0.5167229465    1.1268299792
H        1.0296785871    0.8049238441   -1.6684163499
H        1.4340401421   -0.5327249270   -0.6025834996
H       -0.0066025308    1.0223414128    2.4648117718
H        0.8014652994   -0.4171675228    1.8573482562
29   

C        1.8805562761    4.5310231417   -3.1485646385
C        0.5728829200    4.7477745244   -2.7042234801
C        2.7026543603    3.6234636560   -2.4746126778
C        0.0856306654    4.0526737700   -1.5912064941
C        2.2138511697    2.9287566084   -1.3625750337
C        0.8909203757    3.1245347830   -0.9182011646
C        0.3294387656    2.4302020805    0.2927165648
C       -1.1410845029   -1.2576489644    0.1695986404
C       -0.6365680260   -0.4990188439   -1.0663266879
C       -1.2405201945   -0.3054156420    1.3694704913
C        0.6941517942    0.2054093744   -0.7746733232
C        0.1058249251    0.3820417362    1.6189259313
N        0.5249391812    1.0711664282    0.3972186980
O       -0.2424150628    3.0717039927    1.1662289621
H        2.2590066741    5.0734053379   -4.0078524474
H       -0.0634293857    5.4606590662   -3.2165266352
H        3.7219838344    3.4645356477   -2.8081998779
H       -0.9246836841    4.2370774515   -1.2399553887
H        2.8644335286    2.2414348919   -0.8326759135
H       -0.4463626157   -2.0700749482    0.4070406649
H       -2.1207957542   -1.7001731575   -0.0378773791
H       -1.3807335912    0.2507292988   -1.3558408738
H       -0.5144785908   -1.1911406083   -1.9052072724
H       -1.5482508837   -0.8574265262    2.2627885438
H       -2.0001209551    0.4576492225    1.1673114530
H        0.9973923112    0.7491045316   -1.6720247894
H        1.4729165796   -0.5364006012   -0.5689432302
H        0.0154303687    1.0733989015    2.4637427251
H        0.8599361978   -0.3613422702    1.8967667550
29   

C        1.9376477787    4.6024057541   -3.1052364862
C        0.6597671840    4.9009769138   -2.6250774323
C        2.6759779353    3.5711113351   -2.5192826396
C        0.1165237223    4.1620165922   -1.5677071882
C        2.1315705768    2.8326776918   -1.4626282969
C        0.8294446242    3.1020724471   -0.9897505518
C        0.2101696836    2.3915637721    0.1829030555
C       -1.0915166282   -1.3332907286    0.2658952324
C       -0.6327229058   -0.6143945724   -1.0099510785
C       -1.2015983705   -0.3310596089    1.4227152026
C        0.6790313122    0.1445736146   -0.7749348967
C        0.1271626185    0.4071268425    1.6179648660
N        0.5103726477    1.0558023403    0.3624348831
O       -0.4541208321    3.0147638810    1.0035873393
H        2.3597904722    5.1785634193   -3.9210789844
H        0.0901325674    5.7117574508   -3.0651887140
H        3.6762057366    3.3514651303   -2.8754499575
H       -0.8689809380    4.4146812358   -1.1889673464
H        2.7314052619    2.0592506697   -0.9957721740
H       -0.3673124383   -2.1121502872    0.5264137151
H       -2.0600113519   -1.8146205512    0.0953110711
H       -1.4059020279    0.0979355669   -1.3174575991
H       -0.5030077233   -1.3379590956   -1.8207167252
H       -1.4786390811   -0.8507032369    2.3449657639
H       -1.9875947967    0.3986626632    1.1991126448
H        0.9382529655    0.6616267922   -1.7013162072
H        1.4875379440   -0.5616593783   -0.5588896919
H        0.0289836214    1.1337903857    2.4318298359
H        0.9072339135   -0.3003322489    1.9169716577
29   

C        1.9962357989    4.6922614011   -3.0681432960
C        0.7560048275    5.0577074143   -2.5403909219
C        2.6430546084    3.5508480052   -2.5900029377
C        0.1566419748    4.2747674624   -1.5470713490
C        2.0430536889    2.7682799265   -1.5970506001
C        0.7680906892    3.0993706704   -1.0844893482
C        0.0934719097    2.3673443462    0.0458908221
C       -1.0412495292   -1.3818085529    0.3746458781
C       -0.6362096185   -0.7170834009   -0.9468046280
C       -1.1661897199   -0.3204902957    1.4750783708
C        0.6514098732    0.0994677996   -0.7835559949
C        0.1391293630    0.4730975730    1.6028131524
N        0.4849115239    1.0651225231    0.3085310300
O       -0.6531413430    2.9673497719    0.8122298493
H        2.4623040724    5.3022738701   -3.8339203596
H        0.2590401712    5.9545811305   -2.8928025782
H        3.6191108691    3.2805557132   -2.9770457451
H       -0.7980106852    4.5855682003   -1.1338774891
H        2.5928564378    1.9191548427   -1.2081624039
H       -0.2832159649   -2.1180756958    0.6613597935
H       -1.9943733192   -1.9063585723    0.2513711222
H       -1.4414508634   -0.0500339365   -1.2730679625
H       -0.4977247608   -1.4776088920   -1.7215253103
H       -1.4086348497   -0.7962464139    2.4301213343
H       -1.9817533613    0.3674965125    1.2262870759
H        0.8607608361    0.5800495254   -1.7419128610
H        1.4919259796   -0.5651227284   -0.5576576782
H        0.0280542039    1.2421600565    2.3750766677
H        0.9475889689   -0.1890852783    1.9287496107
29   

C        2.0467095949    4.7868499807   -3.0195127274
C        0.8528155912    5.2003124930   -2.4266000334
C        2.5978796348    3.5518842289   -2.6747597223
C        0.2017666280    4.3728056510   -1.5046811491
C        1.9472224156    2.7240210092   -1.7527706934
C        0.7089210699    3.1030459687   -1.1822024210
C       -0.0175743968    2.3397513217   -0.1006412949
C       -0.9907945833   -1.4163053661    0.4929082938
C       -0.6335532889   -0.8193557521   -0.8727003948
C       -1.1450170048   -0.2916290002    1.5234543444
C        0.6227908644    0.0549248004   -0.7841663559
C        0.1299567267    0.5581030172    1.5825842802
N        0.4487764766    1.0798805817    0.2510465536
O       -0.8480336219    2.9068458538    0.6027355822
H        2.5530020153    5.4310272575   -3.7297601317
H        0.4315991636    6.1686573106   -2.6724626780
H        3.5427662252    3.2430128759   -3.1075809289
H       -0.7148831803    4.7285292708   -1.0444229008
H        2.4460221182    1.8076928195   -1.4638829570
H       -0.1987356340   -2.1012202242    0.8129084381
H       -1.9231215813   -1.9855187106    0.4182313021
H       -1.4699179856   -0.2051088609   -1.2234760774
H       -0.4777741343   -1.6196726901   -1.6028003325
H       -1.3588113998   -0.7129520998    2.5103238179
H       -1.9897667537    0.3464762521    1.2412792349
H        0.7844103879    0.4889236050   -1.7737288996
H        1.4950466628   -0.5620673543   -0.5438944427
H       -0.0053511428    1.3723732514    2.3029482603
H        0.9652867015   -0.0497674803    1.9444635082
