18   

C       -0.8336739444   -1.4334048861   -1.2121064144
C       -0.1697352743   -0.3462281972   -0.7128072135
C       -0.3635225376   -2.8679003690   -1.3806014513
C        1.0099958325    1.2742041579    0.7969273423
C       -1.4286618102    0.7542899681    1.1389840704
C       -0.0714820229    0.1949722070    0.7084843031
H       -1.4514704361   -1.1684394659   -2.0637477209
H       -0.0551194774    0.4501243940   -1.4408993681
H       -0.4133048924   -3.1636591434   -2.4327678952
H       -0.9968061029   -3.5395809314   -0.7939388606
H        0.6699443819   -2.9693059426   -1.0359909796
H        0.7760699814    2.1147442978    0.1359399645
H        1.9795272006    0.8576391213    0.5058076668
H        1.0900988540    1.6471529427    1.8229020510
H       -1.7327755959    1.5724693758    0.4780754525
H       -1.3764575490    1.1324566696    2.1646953989
H       -2.1913200142   -0.0296631279    1.0978792285
H        0.2014648523   -0.6273475333    1.3783968774
18   

C       -0.8398098099   -1.3706223320   -1.3092607874
C       -0.2381922569   -0.2587590809   -0.8086617955
C       -0.3285775671   -2.7972180965   -1.2894481677
C        1.0277177245    1.2026436673    0.7795798819
C       -1.4250353232    0.7622597281    1.1295399962
C       -0.0988465488    0.1768490060    0.6409115911
H       -1.4023583745   -1.1781839146   -2.2167617092
H       -0.2282020216    0.5852763099   -1.4905398935
H       -0.2832776848   -3.1978889895   -2.3064987672
H       -0.9959209025   -3.4245203029   -0.6914250265
H        0.6739565431   -2.8344546620   -0.8525447902
H        0.8187451734    2.0930720710    0.1782323466
H        1.9744526894    0.7671056652    0.4445927992
H        1.1388394124    1.5042730938    1.8259208077
H       -1.7024592741    1.6362289656    0.5313264865
H       -1.3436295007    1.0658138633    2.1779016123
H       -2.2209411333    0.0154748132    1.0466916648
H        0.1469788548   -0.6990543935    1.2508221310
18   

C       -0.8242707866   -1.3267154368   -1.4061564564
C       -0.3063203137   -0.1906083648   -0.8872719649
C       -0.3033438095   -2.7334403086   -1.2091878921
C        1.0328497839    1.1354280949    0.7500781406
C       -1.4263912745    0.7577413900    1.1217401395
C       -0.1291516213    0.1556099950    0.5789616335
H       -1.3230766420   -1.1957681830   -2.3605942835
H       -0.3611229659    0.6788407620   -1.5341143172
H       -0.1634689306   -3.2232991642   -2.1773881119
H       -1.0159012715   -3.3158575316   -0.6179010804
H        0.6567397321   -2.7143988472   -0.6844444692
H        0.8425588756    2.0628983820    0.2007331936
H        1.9585743035    0.6885224684    0.3739161016
H        1.1723249582    1.3767556755    1.8086028618
H       -1.6828057116    1.6727096894    0.5779711181
H       -1.3185334847    0.9989299483    2.1838410534
H       -2.2486211795    0.0437244553    1.0112135437
H        0.0958480979   -0.7590709531    1.1378454980
18   

C       -0.7716014029   -1.2839270259   -1.4816174882
C       -0.3574211586   -0.1310372482   -0.9214606145
C       -0.2866689025   -2.6744479848   -1.1472949851
C        1.0373605938    1.0982523535    0.7371036207
C       -1.4214167912    0.7573098734    1.1397823561
C       -0.1473685130    0.1490367118    0.5511803067
H       -1.1940093367   -1.1882292526   -2.4762213883
H       -0.4549393204    0.7542317855   -1.5411892389
H       -0.0750063082   -3.2298146115   -2.0658133640
H       -1.0526480475   -3.2104149482   -0.5792715337
H        0.6287940180   -2.6286686686   -0.5496670226
H        0.8556441449    2.0497874016    0.2273869759
H        1.9465467893    0.6482589537    0.3259242062
H        1.2015566462    1.2956791153    1.8011622130
H       -1.6667871663    1.6985778808    0.6374125954
H       -1.2905177671    0.9533260540    2.2085915882
H       -2.2608098378    0.0658287263    1.0155567374
H        0.0672699483   -0.7893264742    1.0732703057
18   

C       -0.6957058745   -1.2545540246   -1.5481569768
C       -0.3985501179   -0.0926264753   -0.9421290880
C       -0.2818812106   -2.6388601118   -1.1160452258
C        1.0400277903    1.0735052147    0.7185946253
C       -1.4155839700    0.7589257613    1.1545460735
C       -0.1608490008    0.1450796108    0.5314880430
H       -1.0368484334   -1.1753243692   -2.5748637829
H       -0.5266454398    0.8015208499   -1.5432335535
H       -0.0296695757   -3.2447525265   -1.9913463266
H       -1.1016426793   -3.1227123810   -0.5770150008
H        0.5948712574   -2.5944965329   -0.4631645162
H        0.8627357951    2.0390239034    0.2341772797
H        1.9356462450    0.6211472001    0.2810782854
H        1.2252824221    1.2438932525    1.7838586064
H       -1.6543685179    1.7155813993    0.6788118481
H       -1.2647818627    0.9271371808    2.2254936217
H       -2.2673630712    0.0832233552    1.0276645440
H        0.0480361370   -0.8059931068    1.0316904234
18   

C       -0.5900324873   -1.2463418167   -1.5965821440
C       -0.4226517702   -0.0827362683   -0.9494858760
C       -0.2687673155   -2.6311484366   -1.0975558449
C        1.0396529963    1.0530856534    0.7066730074
C       -1.4137737988    0.7562439306    1.1628981686
C       -0.1706695892    0.1362481441    0.5230093098
H       -0.8425617035   -1.1729406576   -2.6490120715
H       -0.5715243680    0.8144498118   -1.5411897116
H        0.0079664257   -3.2760403240   -1.9368129645
H       -1.1417619657   -3.0603019801   -0.5971513234
H        0.5686038664   -2.6059092706   -0.3942193183
H        0.8653816193    2.0244526070    0.2329027041
H        1.9271167934    0.5977283391    0.2558414479
H        1.2369884673    1.2121640627    1.7715014862
H       -1.6482222370    1.7193523415    0.6981960918
H       -1.2515694290    0.9131999186    2.2339145052
H       -2.2727732766    0.0893596322    1.0379957143
H        0.0345876426   -0.8194517116    1.0151237479
18   

C       -0.4899752133   -1.2410624136   -1.6235686469
C       -0.4686914656   -0.0836955233   -0.9457924111
C       -0.2452080909   -2.6283210756   -1.0908728950
C        1.0446049632    1.0161206807    0.6848772065
C       -1.4109637772    0.7988749823    1.1721118559
C       -0.1955519680    0.1359829100    0.5220895366
H       -0.6660549796   -1.1678931377   -2.6914647052
H       -0.6605948660    0.8102917726   -1.5298928461
H        0.0513923816   -3.2949172257   -1.9060008642
H       -1.1576824521   -3.0193160985   -0.6312963225
H        0.5552583410   -2.6216056238   -0.3455268561
H        0.8942395254    1.9888513289    0.2056364341
H        1.9122912952    0.5307825659    0.2269248716
H        1.2592906957    1.1770640561    1.7460413096
H       -1.6207797512    1.7662545755    0.7046192784
H       -1.2314459325    0.9564206275    2.2403009036
H       -2.2916761727    0.1582979025    1.0613570596
H       -0.0146401777   -0.8220280170    1.0190473249
18   

C       -0.3891869077   -1.2267656651   -1.6375780312
C       -0.5150830585   -0.0925639795   -0.9315600263
C       -0.2229356395   -2.6270428803   -1.1070041521
C        1.0297129571    1.0018698569    0.6697518876
C       -1.4187251962    0.8057080564    1.2010083289
C       -0.2200658862    0.1310665964    0.5322191222
H       -0.5786412171   -1.1472167225   -2.7027289675
H       -0.7792682824    0.7929195756   -1.5001938413
H        0.8398630356   -2.8614275447   -0.9964600607
H       -0.6712525675   -3.3450355293   -1.8000539517
H       -0.7146737215   -2.7352919608   -0.1359295657
H        0.8789268795    1.9732911524    0.1879883063
H        1.8856220559    0.5074003184    0.1995020458
H        1.2637802772    1.1662818394    1.7262567808
H       -1.6289400391    1.7733603000    0.7342735373
H       -1.2191772452    0.9652347326    2.2653573460
H       -2.3062177517    0.1717743707    1.1078612745
H       -0.0338123314   -0.8264396519    1.0283650495
18   

C       -0.2734334290   -1.2126172925   -1.6336765573
C       -0.5320326296   -0.1064674966   -0.9158979747
C       -0.2165930404   -2.6327442386   -1.1294115171
C        1.0277169882    1.0045581249    0.6615520525
C       -1.4183363669    0.8261750178    1.2129552443
C       -0.2273031490    0.1382352143    0.5441752150
H       -0.3740340611   -1.1093790774   -2.7088527445
H       -0.8179747041    0.7717029939   -1.4853610107
H        0.8233869099   -2.9294979003   -0.9649291866
H       -0.6640612601   -3.3091448946   -1.8636612642
H       -0.7669174424   -2.7317652773   -0.1890636391
H        0.8778819104    1.9700753019    0.1677331079
H        1.8780384253    0.4999883317    0.1919106142
H        1.2698769335    1.1821423156    1.7140668615
H       -1.6287567974    1.7882780932    0.7350432543
H       -1.2099006617    0.9990795693    2.2735198517
H       -2.3086723454    0.1941542801    1.1352869211
H       -0.0421411690   -0.8151358762    1.0493220719
18   

C       -0.1737253589   -1.2243199836   -1.6025073864
C       -0.5539136276   -0.1512097665   -0.8825300680
C       -0.2174370671   -2.6679401607   -1.1614523643
C        1.0276343072    1.0035197142    0.6456306806
C       -1.4135693273    0.8516697546    1.2299632353
C       -0.2326901867    0.1402981050    0.5676674776
H       -0.1917458884   -1.0881318071   -2.6785889292
H       -0.8729219662    0.7116803043   -1.4577943812
H        0.7950446124   -3.0249776412   -0.9515943941
H       -0.6545136587   -3.2886991330   -1.9491905897
H       -0.8241929595   -2.7751221937   -0.2571921179
H        0.8764816897    1.9541748905    0.1241183836
H        1.8708051815    0.4812090233    0.1825828514
H        1.2816329490    1.2120993497    1.6896083125
H       -1.6270166031    1.7999257659    0.7264737364
H       -1.1917465066    1.0550755573    2.2823790620
H       -2.3065175750    0.2203896823    1.1818903750
H       -0.0467660425   -0.8008620423    1.0957043165
18   

C       -0.0890115614   -1.2532810312   -1.5547133740
C       -0.5755706038   -0.2180918761   -0.8336746799
C       -0.2148024113   -2.7250021474   -1.2272229640
C        1.0251287497    1.0041933055    0.6270909821
C       -1.4116377895    0.8894993687    1.2416319997
C       -0.2397579753    0.1443339528    0.6005408683
H       -0.0293556364   -1.0663438681   -2.6216724632
H       -0.9405424107    0.6200557078   -1.4181867425
H        0.7672267228   -3.1369177317   -0.9771981993
H       -0.6186093529   -3.2696992631   -2.0858167862
H       -0.8846979880   -2.8697715270   -0.3741342308
H        0.8731197617    1.9295654284    0.0621309833
H        1.8623590028    0.4570234700    0.1824011984
H        1.2887238156    1.2612267451    1.6577776603
H       -1.6279217586    1.8142603165    0.6973617847
H       -1.1780071393    1.1404789281    2.2811476983
H       -2.3066950670    0.2594403298    1.2323323519
H       -0.0536252382   -0.7741579939    1.1674133693
18   

C       -0.0294133087   -1.2896162290   -1.4729457694
C       -0.5939350248   -0.2949262756   -0.7376291920
C       -0.2105651799   -2.7858309377   -1.3134086143
C        1.0260292175    1.0086675860    0.6349818108
C       -1.4085593942    0.9575458136    1.2694678548
C       -0.2474527274    0.1617628789    0.6701420109
H        0.0940574579   -1.0283534379   -2.5186742612
H       -1.0260145790    0.5045382425   -1.3306022346
H        0.7417894666   -3.2501610570   -1.0415538154
H       -0.5647299975   -3.2268468308   -2.2499199228
H       -0.9417189393   -2.9973216360   -0.5272587367
H        0.8799777769    1.8957427207    0.0101519461
H        1.8563620027    0.4253940387    0.2246684515
H        1.2963145421    1.3313970346    1.6452419967
H       -1.6208104674    1.8475397616    0.6686256259
H       -1.1655289309    1.2726215643    2.2891840598
H       -2.3089891797    0.3362085106    1.3066558480
H       -0.0679965264   -0.7207079862    1.2935747696
18   

C        0.0143144971   -1.3486016048   -1.3833532669
C       -0.6022865280   -0.3901021141   -0.6262870756
C       -0.2004080878   -2.8519935571   -1.4136350292
C        1.0344526487    1.0019113080    0.6419995351
C       -1.3995981255    1.0317920886    1.2814278569
C       -0.2497384599    0.1769162750    0.7436842311
H        0.1952327626   -1.0034701242   -2.3959365653
H       -1.1374856285    0.3407818716   -1.2236169159
H        0.7253146811   -3.3668068089   -1.1409071104
H       -0.5022170946   -3.1732780118   -2.4149808152
H       -0.9826098347   -3.1359127758   -0.7032522833
H        0.8991593962    1.8369513569   -0.0530593091
H        1.8578677938    0.3774382445    0.2815269379
H        1.3081511673    1.4025288570    1.6230264313
H       -1.6026185156    1.8753248141    0.6140684302
H       -1.1500063407    1.4219624070    2.2731951961
H       -2.3074379213    0.4263978439    1.3685649873
H       -0.0820405882   -0.6558701084    1.4349416888
