17

C      1.78860   -1.18887   -0.11283
C      0.72556   -0.55504    0.54467
C      2.87272   -1.65998    0.62076
C      0.75605   -0.39780    1.93073
C      2.93666   -1.51844    2.02128
C      1.85354   -0.87912    2.63906
C      4.15434   -2.06357    2.72188
C      4.28723   -1.95173    4.22563
O      5.03503   -2.59908    2.05853
F      1.83623   -0.70132    3.98675
H      1.76689   -1.31227   -1.19173
H     -0.12610   -0.18331   -0.01857
H      3.70827   -2.15429    0.13546
H     -0.05014    0.08835    2.47136
H      3.45380   -2.45124    4.72875
H      4.26161   -0.90434    4.54122
H      5.23167   -2.40847    4.52436
