22

C      1.81154   -0.95375   -0.20384
C      2.79584   -1.62926    0.52458
C      0.76044   -0.31133    0.46471
C      2.73676   -1.65908    1.91958
C      0.69492   -0.34721    1.85559
C      4.60164   -2.56144    6.52488
C      3.30816   -3.08929    6.55183
C      4.83964   -1.54298    5.60220
C      1.68503   -1.01828    2.59487
C      2.67276   -1.64869    4.91487
C      1.54755   -1.05785    4.07719
N      2.33184   -2.63049    5.76039
N      3.88388   -1.09051    4.77807
O      0.56231   -0.62614    4.65990
H      1.86146   -0.92777   -1.28951
H      3.60979   -2.12874    0.00596
H     -0.00469    0.21234   -0.10225
H      3.50936   -2.17636    2.47783
H     -0.11515    0.13565    2.39344
H      5.38253   -2.93012    7.18282
H      3.04343   -3.90003    7.22915
H      5.82035   -1.07873    5.50969
