20

C      0.62365    0.96184    1.90850
C      0.22059   -0.23718    1.32428
C     -0.08901    1.35867    3.04589
C     -4.13534   -1.91320    4.74058
C     -4.00929   -2.88463    3.76323
C     -1.40490   -0.49796    2.91362
C     -2.51181   -1.28491    3.47049
C     -2.51884   -3.24520    1.78935
N     -0.78473   -0.97174    1.81278
N     -1.09400    0.64729    3.55405
N     -3.20831   -0.93229    4.55128
N     -2.97429   -2.48485    2.95278
H      1.44061    1.55208    1.50597
H      0.71598   -0.62664    0.43541
H      0.15819    2.28335    3.56717
H     -4.84281   -1.87898    5.55954
H     -4.55107   -3.80173    3.57731
H     -2.61368   -2.65152    0.87986
H     -1.47284   -3.53140    1.90150
H     -3.13895   -4.14030    1.71088
