19

C      1.41482   -0.04989    1.64962
C      0.24439   -0.40150    0.96162
C      1.66498   -0.61106    2.89427
C     -0.61752   -1.30931    1.57423
C     -0.36462   -4.28209    6.98466
C     -1.31562   -4.33169    6.01784
C      0.71985   -1.52121    3.41885
C      0.25931   -2.97872    5.42456
N     -0.39764   -1.86456    2.77515
N      0.65024   -3.40775    6.59757
N      0.97803   -2.08110    4.67001
O     -0.91622   -3.48160    4.99228
H      2.12277    0.65357    1.21922
H      0.00994    0.01348   -0.01348
H      2.56292   -0.35932    3.45319
H     -1.53922   -1.61403    1.08044
H     -0.33053   -4.80745    7.92953
H     -2.25208   -4.84664    5.87071
H      1.83266   -1.80229    5.13448
