28

C      0.36511   -0.68054    7.73387
C     -1.01974   -0.75486    7.95955
C      0.85036   -0.80979    6.44073
C     -1.84572   -0.95705    6.85874
C     -0.08097   -1.01203    5.40068
C      0.80488    0.36920    0.94735
C      1.41254   -0.97629    1.37065
C      0.00929    1.00568    2.09677
C      0.33652   -1.93146    1.90844
C     -1.06974    0.05120    2.62702
C     -0.48713   -1.30591    3.03396
N     -1.39595   -1.08306    5.59687
O      0.43080   -1.14589    4.15479
H      1.05324   -0.52372    8.56082
H     -1.44056   -0.65756    8.95544
H      1.90940   -0.76287    6.20814
H     -2.92597   -1.02108    6.98205
H      0.13628    0.21146    0.08887
H      1.59427    1.05067    0.60881
H      1.93269   -1.44327    0.52614
H      2.16317   -0.80677    2.15153
H      0.69468    1.26365    2.91346
H     -0.45522    1.94221    1.76699
H     -0.35786   -2.19770    1.10079
H      0.78669   -2.86370    2.26629
H     -1.60250    0.48592    3.47704
H     -1.81813   -0.13373    1.84443
H     -1.28861   -1.97843    3.34833
