24

C      7.86728   -0.53518   -2.79897
C      6.94605   -1.56111   -2.56930
C      7.61930    0.73065   -2.25758
C      5.78902   -1.34922   -1.81415
C      6.46991    0.95865   -1.50197
C      5.54363   -0.07596   -1.27199
C      3.35711   -0.58094   -0.12754
C      1.24055   -0.74614    1.08379
C      2.45053    1.43556    1.04450
N      4.41030    0.24780   -0.49598
N      2.38746    0.03844    0.64188
O      3.28625   -1.76724   -0.45489
H      8.76177   -0.71683   -3.38828
H      7.12481   -2.55039   -2.98343
H      8.32038    1.54497   -2.42199
H      5.08080   -2.14692   -1.64053
H      6.28722    1.94837   -1.08538
H      1.19252   -0.78073    2.17937
H      1.34608   -1.75948    0.70085
H      0.30606   -0.31520    0.70341
H      2.44765    2.11781    0.18328
H      3.32838    1.65013    1.66950
H      1.56717    1.66844    1.64093
H      4.38650    1.20708   -0.18398
