22

C      1.98334   -1.06845   -0.15163
C      2.53735   -2.15432    0.53348
C      1.43750   -0.00132    0.56999
C      2.54275   -2.17033    1.93170
C      1.43997   -0.02063    1.96742
C      2.62707    2.14450    5.45971
C      3.06805    1.02510    4.78752
C      0.98952    0.75823    5.48618
C      1.99047   -1.10801    2.65820
C      1.96058   -1.17093    4.17556
N      1.32782    1.96799    5.89216
N      2.00986    0.13470    4.81500
H      1.98303   -1.05054   -1.23835
H      2.97119   -2.98406   -0.01858
H      1.01192    0.84956    0.04431
H      2.98319   -3.01435    2.45941
H      1.02572    0.81695    2.52217
H      3.16987    3.06016    5.65703
H      3.99965    0.78773    4.29354
H      0.03322    0.27574    5.64929
H      1.03815   -1.65619    4.51187
H      2.79145   -1.78298    4.54125
