19

C      1.24065    0.11261    1.59965
C      0.10931   -0.39603    0.95312
C      1.62949   -0.40502    2.83276
C     -0.59170   -1.42188    1.58982
C      3.33365   -1.97589    7.25840
C      3.84993   -1.00286    6.46780
C      0.84725   -1.43889    3.38215
C      2.08624   -1.86325    5.53840
N     -0.24131   -1.93748    2.77305
N      2.20133   -2.52600    6.65864
N      1.10603   -2.06021    4.60568
O      3.04021   -0.91799    5.33355
H      1.82270    0.91165    1.14751
H     -0.21981   -0.01435   -0.00813
H      2.50033   -0.02725    3.34975
H     -1.47942   -1.85459    1.13114
H      3.69090   -2.32486    8.21792
H      4.68644   -0.32319    6.50863
H      0.44001   -2.78518    4.85000
