22

C      1.63597   -1.32883   -0.24699
C      2.39829   -2.30582    0.40357
C      1.10287   -0.25778    0.47918
C      2.62358   -2.21336    1.77714
C      1.34715   -0.15040    1.84825
C      3.86144    2.95398    3.24087
C      3.42615    3.40779    4.44283
C      2.11222   -1.12705    2.50168
C      2.92775    1.30929    4.21069
C      2.32970   -1.11556    3.97418
N      3.54584    1.59937    3.10595
N      2.37417    0.11920    4.64861
O      2.40072   -2.14076    4.64113
O      2.80590    2.34597    5.08849
H      1.45316   -1.40436   -1.31591
H      2.80858   -3.14068   -0.15812
H      0.49969    0.49405   -0.02254
H      3.19244   -2.97411    2.30269
H      0.93112    0.68213    2.40594
H      4.38916    3.48963    2.46354
H      3.46044    4.34329    4.97920
H      2.37541   -0.00063    5.65786
