26

C     -0.94727   -3.31978    6.07278
C      2.17959   -1.24298   -0.21674
C     -0.37400   -2.17532    6.64235
C     -0.81264   -3.53997    4.69966
C      1.08416   -0.43172    0.09259
C      2.92530   -1.83136    0.81049
C      0.32798   -1.26559    5.85146
C     -0.11455   -2.63477    3.89166
C      0.73763   -0.21986    1.43049
C      2.59935   -1.63260    2.15913
C      0.45612   -1.49905    4.47659
C      1.48954   -0.81943    2.43936
C      3.39863   -2.25840    3.27441
O      1.15668   -0.54456    3.76399
H     -1.49108   -4.02777    6.69179
H      2.45799   -1.41324   -1.25335
H     -0.47114   -1.99067    7.70918
H     -1.25453   -4.42263    4.24417
H      0.50261    0.03373   -0.69859
H      3.78277   -2.45352    0.56376
H      0.78195   -0.37530    6.27685
H     -0.01771   -2.81027    2.82547
H     -0.10743    0.40437    1.70635
H      3.65196   -1.51763    4.03882
H      2.82976   -3.04955    3.77536
H      4.32439   -2.69569    2.89192
