18

C      0.20210   -0.42701    0.95811
C      1.38423   -0.03390    1.58861
C      0.76989   -3.28407    6.51712
C     -0.61694   -1.33863    1.62437
C      1.97508   -2.52767    6.54858
C      0.18429   -2.96283    5.31321
C      1.69242   -0.55927    2.83650
C      0.80703   -1.47581    3.43801
N     -0.32066   -1.84424    2.82509
N      2.13111   -1.79321    5.45415
N      1.02584   -2.06558    4.69819
F      2.83573   -0.16600    3.42345
H     -0.07251   -0.03804   -0.01723
H      2.07520    0.67143    1.13640
H      0.38775   -3.96385    7.26632
H     -1.54986   -1.68034    1.18100
H      2.73127   -2.49061    7.32343
H     -0.73191   -3.27595    4.83739
