32

C     -6.55387   -2.40943    4.25871
C     -5.15779   -2.50520    4.26418
C     -7.25532   -2.54243    3.05507
C     -4.46609   -2.71073    3.06791
C     -6.56481   -2.77116    1.86236
C     -5.16574   -2.83808    1.85899
C     -4.46154   -3.15562    0.56723
C     -0.90271   -1.00527   -0.42130
C     -1.13058   -2.47313   -0.79954
C     -1.73094   -0.64656    0.81889
C     -2.61946   -2.78019   -0.97458
C     -3.22253   -0.97906    0.65083
C     -3.95437   -0.02402   -0.30703
N     -3.37098   -2.38785    0.22543
O     -4.84257   -4.11164   -0.11445
H     -7.09221   -2.24180    5.18805
H     -4.60925   -2.42236    5.19901
H     -8.34042   -2.47918    3.04827
H     -3.38192   -2.79179    3.07207
H     -7.10156   -2.91007    0.92829
H      0.15953   -0.81860   -0.22836
H     -1.18468   -0.35961   -1.26250
H     -0.60322   -2.72241   -1.72725
H     -0.72637   -3.12164   -0.01205
H     -1.34820   -1.21102    1.67859
H     -1.62803    0.41722    1.06059
H     -3.01534   -2.25927   -1.85757
H     -2.79219   -3.84394   -1.13358
H     -3.69871   -0.88059    1.62484
H     -3.54475   -0.04869   -1.32023
H     -3.87874    1.00499    0.06014
H     -5.01511   -0.28763   -0.36470
