20

C      1.81674   -1.16209   -0.18406
C      2.98956   -1.44447    0.52055
C      0.67793   -0.76871    0.52839
C      3.04497   -1.34169    1.91355
C      0.71576   -0.66139    1.91679
C      3.82340   -1.18122    6.84572
C      4.71272   -1.51318    5.87765
C      1.89904   -0.94654    2.62550
C      2.79399   -1.01857    4.98961
N      2.59212   -0.86430    6.27323
N      1.85010   -0.81171    4.02299
O      4.04911   -1.41030    4.65283
H      1.78849   -1.24617   -1.26656
H      3.88345   -1.75127   -0.01668
H     -0.24638   -0.54369    0.00276
H      3.96525   -1.56569    2.43450
H     -0.17570   -0.35470    2.46065
H      3.97505   -1.14595    7.91619
H      5.74608   -1.81922    5.83560
H      0.96490   -0.52474    4.42142
