18   
Generated by ForceBalance from scan.xyz: Frame 1 of 24
C       -0.7444713660    1.1229263577    1.9894150971
C        0.6292263840   -2.6463693345    2.7092489503
C        0.8353680728    1.2022452910    0.0897562140
C        1.6575332218    1.4667945049    2.4881981652
C        0.6317083829    0.7863750087    1.5572400777
N       -1.8216458529    1.4299136885    2.3001010469
N        0.1255997376   -1.3137180347    2.3343283000
N        0.9384064548   -0.6644858867    1.6595439674
N       -0.4088577080   -3.5278033341    2.7454596381
O        1.7867444125   -2.8739308383    2.9988388992
H        1.8469717402    0.9295690667   -0.2213520668
H        0.1171447010    0.6951047929   -0.5592900341
H        0.7036301677    2.2813122948   -0.0177552007
H        2.6658493930    1.1667143892    2.1928045734
H        1.4895749820    1.1719686988    3.5263401491
H        1.5629964545    2.5521901216    2.4035587859
H       -0.2436214224   -4.4393661744    3.1515423472
H       -1.3559627320   -3.1738952600    2.7087085548
18   
Generated by ForceBalance from scan.xyz: Frame 2 of 24
C       -0.7585304770    1.2149555933    1.9826981793
C        0.5600221717   -2.5196879697    2.8650571644
C        0.8055406514    1.2883714354    0.0703173626
C        1.6717260929    1.2976842574    2.4693157857
C        0.5772564929    0.7907121910    1.5062549586
N       -1.8097333854    1.5779987389    2.3209847103
N        0.0097948440   -1.2883282863    2.3135664531
N        0.7584261921   -0.6895867521    1.5245601594
N       -0.2771899454   -3.5845561174    2.7152871562
O        1.6130985201   -2.5009362758    3.4737708222
H        1.7782654570    0.9326791510   -0.2792110787
H        0.0294613897    0.9100895162   -0.5997179663
H        0.7910681631    2.3802008549    0.0400283400
H        2.6448302973    0.9290906113    2.1360415346
H        1.4871885102    0.9390628830    3.4837234033
H        1.6757736672    2.3906341774    2.4637372653
H       -0.1022332551   -4.3957768383    3.2953061594
H       -1.2302949211   -3.4141328971    2.4201099025
18   
Generated by ForceBalance from scan.xyz: Frame 3 of 24
C       -0.7612178548    1.2166004183    1.9804560564
C        0.5361656131   -2.4382413163    2.8979833829
C        0.8282712853    1.3926561351    0.0934547167
C        1.6659123586    1.1586347084    2.4920859439
C        0.5627546459    0.7850767682    1.4785977820
N       -1.8036556235    1.5823380062    2.3423294933
N       -0.0425303471   -1.3359053838    2.1614905456
N        0.6967190897   -0.7007925884    1.3897051002
N       -0.2036129054   -3.5825397043    2.8559456467
O        1.5270364061   -2.2383095725    3.5778181226
H        1.7846443048    1.0181211542   -0.2809060961
H        0.0397561843    1.1150631474   -0.6104214601
H        0.8712635352    2.4822943173    0.1571829048
H        2.6304483460    0.7998373880    2.1257152752
H        1.4689970295    0.7049321601    3.4646092443
H        1.6952847195    2.2470203234    2.5915683624
H       -0.0379921939   -4.2632372301    3.5871065812
H       -1.1349953135   -3.5390637656    2.4618703235
18   
Generated by ForceBalance from scan.xyz: Frame 4 of 24
C       -2.2935512592    1.4731630442    3.7706102262
C       -3.8412615259   -1.8182234747    2.6245477526
C       -0.0204970996    1.0505115598    2.8849629511
C       -1.0453143537   -0.4868481741    4.6467247904
C       -1.3119793020    0.4220667544    3.4259337453
N       -3.0432947521    2.3226866229    4.0306515929
N       -3.0799581667   -0.6464635098    2.3761413794
N       -1.8416610945   -0.5626781269    2.4263222130
N       -4.9287184088   -1.9733333922    1.8067425140
O       -3.5659575303   -2.5087287987    3.5942782737
H        0.6558685885    0.2524235463    2.5674713034
H       -0.2308681932    1.6975193917    2.0298024255
H        0.4682327062    1.6447022089    3.6604929376
H       -0.3192106632   -1.2555299382    4.3731613744
H       -1.9626444348   -0.9712422899    4.9841634793
H       -0.6358845366    0.1315537462    5.4504115495
H       -5.6832818098   -2.5315894515    2.1877242890
H       -5.2023610743   -1.1772317715    1.2435091958
18   
Generated by ForceBalance from scan.xyz: Frame 5 of 24
C       -0.5708912979    0.6323183229    2.1172319329
C        0.4418277423   -2.5918878689    2.8930970366
C        0.7304224680    1.3354472065    0.1301371393
C        1.8182749372    1.2348614011    2.4416373680
C        0.7618172800    0.6398343084    1.4948671436
N       -1.6347262434    0.5498403300    2.5804104643
N        0.7136101020   -1.6546749780    1.9472429446
N        1.2317574764   -0.8087961959    1.2398607479
N       -0.6857620089   -3.3552117899    2.6269489514
O        1.1893556188   -2.7276879006    3.8597749843
H        1.7179823276    1.2571500929   -0.3318559139
H       -0.0039363625    0.8679449445   -0.5307023739
H        0.4741880113    2.3913060682    0.2469939892
H        2.8060609035    1.1349477881    1.9831443761
H        1.8179719463    0.7110530605    3.4004907088
H        1.6128316562    2.2949468418    2.6119548216
H       -0.9894059358   -3.8588497024    3.4532522592
H       -1.4394451717   -2.8722746413    2.1484054007
18   
Generated by ForceBalance from scan.xyz: Frame 6 of 24
C       -0.5702113161    0.5738023800    2.1156450951
C        0.4282353760   -2.5927633816    2.8915941051
C        0.7232773509    1.3239985785    0.1406763290
C        1.8063906008    1.2203357253    2.4544232209
C        0.7640267157    0.6166517203    1.4989968092
N       -1.6329736039    0.4458432644    2.5712985602
N        0.7624517368   -1.6871929735    1.9350100340
N        1.2523659360   -0.8281381920    1.2252123877
N       -0.7411087319   -3.2913803593    2.6209650973
O        1.1676142494   -2.7723307064    3.8572460739
H        1.7125593323    1.2645188827   -0.3204442595
H       -0.0026683539    0.8509238498   -0.5254128370
H        0.4509347409    2.3748023816    0.2665538793
H        2.7976102326    1.1383900368    1.9995781742
H        1.8105084180    0.6894954214    3.4094977564
H        1.5856733824    2.2760559426    2.6326590199
H       -1.0457510041   -3.8118061847    3.4367713538
H       -1.4835035279   -2.7455409673    2.1943459125
18   
Generated by ForceBalance from scan.xyz: Frame 7 of 24
C       -0.5509175809    0.5554012605    2.1361272401
C        0.4277518881   -2.5487812163    2.9030116704
C        0.7190211326    1.3275897906    0.1542846924
C        1.8202018029    1.2289199076    2.4599494110
C        0.7775240630    0.6156455696    1.5098643161
N       -1.6065515529    0.4054353510    2.6017096639
N        0.7746480125   -1.7045291719    1.8915804194
N        1.2843385775   -0.8207437425    1.2257576358
N       -0.7340545961   -3.2692565644    2.6693678009
O        1.1718774052   -2.6760535025    3.8732226207
H        1.7063413014    1.2835226236   -0.3126792644
H       -0.0041411699    0.8469981767   -0.5094960766
H        0.4329075009    2.3740730699    0.2860737688
H        2.8083752856    1.1611360011    1.9964112298
H        1.8388190065    0.6945711391    3.4128384085
H        1.5878168244    2.2811776033    2.6441630792
H       -1.0387989519   -3.7490687270    3.5093787245
H       -1.4780025954   -2.7557766211    2.2070992264
18   
Generated by ForceBalance from scan.xyz: Frame 8 of 24
C       -0.5091726171   -0.2282770357    1.7134311355
C       -0.1756146531   -1.7993438364    4.1395517797
C        1.4235787519   -0.6527100792    0.2423997750
C        1.5392597228    1.1370803714    2.0596104896
C        0.9625763339   -0.2290662291    1.6490660246
N       -1.6673313361   -0.3167470268    1.7776748108
N        0.8506468680   -2.0766347646    3.1737860114
N        1.5779945214   -1.2848586685    2.5607581905
N       -1.1562397697   -2.7534762410    4.2058974572
O        0.0124680293   -0.9062599628    4.9512663285
H        2.5149847345   -0.6871091507    0.2208950219
H        1.0330875922   -1.6392600732   -0.0178507754
H        1.0676109197    0.0757569105   -0.4912410470
H        2.6300306295    1.0645026504    2.0858809156
H        1.1796350553    1.4225701722    3.0502753746
H        1.2526995556    1.9056223904    1.3371232582
H       -1.9259036334   -2.5109172790    4.8176883692
H       -1.4149058319   -3.2125102476    3.3404341888
18   
Generated by ForceBalance from scan.xyz: Frame 9 of 24
C       -0.5242972843   -0.3236635342    1.6628705433
C       -0.1584060551   -1.6997863013    4.0450930343
C        1.4247845346   -0.5839126823    0.1933380661
C        1.4978294235    1.0344349138    2.1650173938
C        0.9494651323   -0.3028489020    1.6315211877
N       -1.6845494751   -0.4064388981    1.6576542816
N        0.8926851334   -2.1748109784    3.1516886329
N        1.5767847910   -1.4258152444    2.4404541811
N       -1.1405787870   -2.6205525350    4.2538433752
O        0.0106888991   -0.6724044966    4.6832884869
H        2.5167111110   -0.5776104700    0.1727232723
H        1.0709573822   -1.5579443700   -0.1527496875
H        1.0425266864    0.1909245956   -0.4764834964
H        2.5892877048    0.9756597219    2.2037688139
H        1.1154323753    1.2279593772    3.1681200550
H        1.2125190984    1.8522187789    1.4979283902
H       -1.9395831763   -2.2988757217    4.7853281426
H       -1.3123522659   -3.3154338141    3.5378990311
18   
Generated by ForceBalance from scan.xyz: Frame 10 of 24
C       -0.5338609044   -0.3732033916    1.6643519479
C       -0.1364330174   -1.6428258689    4.0459144440
C        1.4040616140   -0.5640883572    0.1831137526
C        1.4892951109    0.9778538379    2.2090451055
C        0.9400154969   -0.3437112726    1.6363319199
N       -1.6935620632   -0.4592319135    1.6342428349
N        0.9664927781   -2.1651829733    3.2362450849
N        1.5804787798   -1.4874948984    2.4018629218
N       -1.1230986684   -2.5582470181    4.2461689276
O       -0.0148681168   -0.5771174252    4.6292707178
H        2.4959450148   -0.5529222938    0.1548822390
H        1.0522805509   -1.5258493880   -0.1979841978
H        1.0148228734    0.2330493391   -0.4553324081
H        2.5812664610    0.9209268601    2.2352635980
H        1.1143263531    1.1413885971    3.2193555543
H        1.1966196949    1.8114544489    1.5649626805
H       -1.9637412494   -2.2133942419    4.6926717423
H       -1.2300717830   -3.3111285517    3.5777016507
18   
Generated by ForceBalance from scan.xyz: Frame 11 of 24
C       -0.5463928794   -0.3921055570    1.6695881226
C       -0.1256522426   -1.5979279892    4.0675939261
C        1.3866037949   -0.5459574355    0.1845316559
C        1.4875081754    0.9369766451    2.2497715834
C        0.9275929134   -0.3660298523    1.6447346897
N       -1.7062850499   -0.4720870092    1.6293947799
N        1.0311568052   -2.1170521291    3.3317843938
N        1.5677790822   -1.5269289991    2.3858029078
N       -1.1030143215   -2.5313503958    4.2225823921
O       -0.0691009169   -0.5153801332    4.6290690591
H        2.4786494414   -0.5384706076    0.1542571752
H        1.0310711738   -1.4958641501   -0.2221744237
H        1.0003380236    0.2687330143   -0.4328566311
H        2.5786309161    0.8669316446    2.2806488867
H        1.1077354271    1.0873681822    3.2597996634
H        1.2086281816    1.7837906523    1.6168386268
H       -1.9839937210   -2.1921048638    4.5891898517
H       -1.1410418010   -3.3091833871    3.5754165268
18   
Generated by ForceBalance from scan.xyz: Frame 12 of 24
C       -0.5632658574   -0.3917583428    1.6606434120
C       -0.1165527477   -1.5464383686    4.0915409740
C        1.3633963248   -0.5477895468    0.1708026931
C        1.4948618677    0.8974067893    2.2596875825
C        0.9113003420   -0.3855108474    1.6344962525
N       -1.7238940920   -0.4577878053    1.6151413021
N        1.0849114304   -2.0442770251    3.4120097861
N        1.5370602039   -1.5626153889    2.3654750920
N       -1.0702609270   -2.5101972702    4.2009813870
O       -0.1302262422   -0.4546809172    4.6369719207
H        2.4555020647   -0.5587682392    0.1381687709
H        0.9910552959   -1.4847163487   -0.2507143522
H        0.9909563451    0.2827748583   -0.4335118528
H        2.5848153019    0.8096661364    2.2838846824
H        1.1207708082    1.0401391932    3.2728608789
H        1.2262435208    1.7566408877    1.6392066581
H       -1.9838343171   -2.1947796736    4.5040447909
H       -1.0384516954   -3.3060996875    3.5759702576
18   
Generated by ForceBalance from scan.xyz: Frame 13 of 24
C        0.4465191610   -0.3487413328    0.8707362314
C       -0.7157826911   -1.2844422750    3.1409713858
C        2.5399846806   -0.3282586692    2.2336909316
C        1.5776903451    1.7897870162    1.2030608797
C        1.2532388505    0.4219293007    1.8349321856
N       -0.2284399587   -0.8809628204    0.0868194933
N       -0.4176826764    0.0849617857    3.5716014676
N        0.5087650662    0.7650342687    3.1128487292
N       -2.0361943650   -1.4663141180    2.8704824299
O        0.1270964724   -2.1625313679    3.2355725644
H        3.0590454726    0.2522651689    3.0017487483
H        2.3037054567   -1.3164286116    2.6270480874
H        3.1942435550   -0.4209229330    1.3625900337
H        2.1673023854    2.3753341834    1.9122987943
H        0.6622255601    2.3392057244    0.9702800873
H        2.1495449304    1.6509775231    0.2823126433
H       -2.2815864667   -2.3443488803    2.4296851011
H       -2.6043593907   -0.6593507901    2.6443823596
18   
Generated by ForceBalance from scan.xyz: Frame 14 of 24
C        0.4689720670   -0.3510927202    0.8743544580
C       -0.7603916931   -1.2558921598    3.1350365387
C        2.5804861630   -0.3265464270    2.2000518164
C        1.5762222547    1.8020027339    1.2254698852
C        1.2805924224    0.4176961757    1.8357608080
N       -0.2137052369   -0.8874642731    0.1000993224
N       -0.4778936632    0.1390343351    3.4815271865
N        0.5465584218    0.7360465083    3.1255400447
N       -2.0778789973   -1.4809001835    2.8800411393
O        0.0970262275   -2.1104424226    3.2940784741
H        3.1093908803    0.2472379662    2.9664292687
H        2.3557868454   -1.3203674718    2.5871938413
H        3.2212162729   -0.4080824425    1.3178790910
H        2.1683697460    2.3827483606    1.9362433180
H        0.6500462604    2.3422698338    1.0150915418
H        2.1364767298    1.6847056088    0.2943898066
H       -2.3073168463   -2.3966813423    2.5144577642
H       -2.6545997779   -0.7046232636    2.5802285226
18   
Generated by ForceBalance from scan.xyz: Frame 15 of 24
C        0.5137156122   -0.3689348753    0.8665868011
C       -0.8185925904   -1.2438494037    3.1388317803
C        2.6372658444   -0.3167879004    2.1607178466
C        1.5655095214    1.8144794998    1.2550531814
C        1.3178138964    0.4063644482    1.8289130830
N       -0.1710904384   -0.9249182305    0.1082941416
N       -0.5140076015    0.1627659921    3.3793451451
N        0.5862372457    0.6762731086    3.1329367220
N       -2.1402281978   -1.4714275606    2.8975101558
O        0.0247464544   -2.0942317520    3.3773243504
H        3.1639504207    0.2506782359    2.9332592372
H        2.4354006043   -1.3223839960    2.5319554674
H        3.2705263881   -0.3724781757    1.2713193310
H        2.1474343291    2.3938778578    1.9750892755
H        0.6220772662    2.3320645019    1.0659797634
H        2.1207511716    1.7348712708    0.3166899021
H       -2.3807317941   -2.4154631199    2.6230052968
H       -2.6955070968   -0.7216869094    2.5042749435
18   
Generated by ForceBalance from scan.xyz: Frame 16 of 24
C        0.5937223486   -0.4414175402    0.8810433929
C       -0.9263540412   -1.2698191671    3.2196071726
C        2.7619865978   -0.2703519149    2.0849811877
C        1.5042944583    1.8103534115    1.3053345428
C        1.3853565353    0.3659813532    1.8252920888
N       -0.1055429609   -1.0448007187    0.1737646503
N       -0.4562286752    0.0823962933    3.3349278904
N        0.6874527453    0.5262244622    3.1713473256
N       -2.2516633700   -1.3769244226    2.8902310245
O       -0.2142813571   -2.1726491105    3.6315562057
H        3.2769334145    0.3088422972    2.8564096132
H        2.6489524750   -1.2995971687    2.4315776656
H        3.3652314918   -0.2614381559    1.1735112921
H        2.0590091911    2.4061608392    2.0334259385
H        0.5181374523    2.2573599604    1.1598206576
H        2.0391410554    1.8101978599    0.3516332798
H       -2.5573503223   -2.3266857141    2.7169815916
H       -2.6315907439   -0.6755721554    2.2654045832
18   
Generated by ForceBalance from scan.xyz: Frame 17 of 24
C       -0.5970585873    0.5169539638    1.9800615126
C        0.2128597231   -2.7228295478    2.1476767398
C        1.1792092901    0.7251928922    0.2531350565
C        1.4037829758    1.8707856101    2.5281084194
C        0.8471349902    0.6712628502    1.7540449940
N       -1.7162515484    0.3145337546    2.2251137714
N        0.9244511842   -1.5886013399    2.3993090448
N        1.5937617205   -0.5766461613    2.2890540590
N       -0.5725916177   -3.1485889998    3.2084376432
O        0.3671620053   -3.3154784449    1.0817675157
H        2.2656240224    0.7368060360    0.1285480737
H        0.7727290209   -0.1461584122   -0.2658961652
H        0.7629044318    1.6330397352   -0.1914861900
H        2.4884132280    1.9054530326    2.3970473105
H        1.1824589449    1.7852023008    3.5949867147
H        0.9690168519    2.8006478144    2.1530305135
H       -1.2037190595   -3.8879392554    2.9190496441
H       -1.0315738708   -2.4102106625    3.7327793413
18   
Generated by ForceBalance from scan.xyz: Frame 18 of 24
C       -0.6040968001    0.5456885554    1.9989789871
C        0.2208055169   -2.7580561516    2.1693730391
C        1.1734372179    0.7216468031    0.2697276871
C        1.4175987078    1.8706468652    2.5407514580
C        0.8424986270    0.6777652131    1.7705229202
N       -1.7273017220    0.3694514420    2.2455814435
N        0.8875510158   -1.5900179890    2.3641090850
N        1.5669085490   -0.5814195284    2.3096098337
N       -0.5564750242   -3.1493704567    3.2516656096
O        0.3799045081   -3.3939437786    1.1292989982
H        2.2597347533    0.7151489223    0.1431258841
H        0.7520680246   -0.1447109120   -0.2458817491
H        0.7711390080    1.6346254987   -0.1771063448
H        2.5028220404    1.8873969260    2.4108865379
H        1.1936200869    1.7925595385    3.6076178945
H        0.9985315297    2.8061453654    2.1620268188
H       -1.1712867166   -3.9143142308    2.9946602266
H       -1.0354413715   -2.3965324742    3.7363479205
18   
Generated by ForceBalance from scan.xyz: Frame 19 of 24
C       -0.6139126260    0.6024316071    1.9759132623
C        0.2377593002   -2.7549757593    2.1464477209
C        1.1848005531    0.7462392140    0.2671602367
C        1.4247432429    1.8915683806    2.5403044093
C        0.8382787368    0.7069965960    1.7655993198
N       -1.7466790195    0.4624221311    2.2002514749
N        0.8378850503   -1.5545839161    2.3587803785
N        1.5393650607   -0.5600964840    2.2998545193
N       -0.5026015247   -3.2166984031    3.2255090573
O        0.4033114356   -3.3481973159    1.0822094897
H        2.2719923501    0.7254899722    0.1508928953
H        0.7563683550   -0.1143402904   -0.2520791420
H        0.7983776691    1.6649938396   -0.1817811156
H        2.5110404714    1.8934945796    2.4186259368
H        1.1912977671    1.8167866904    3.6054050086
H        1.0215086808    2.8327488660    2.1586165218
H       -1.1190063468   -3.9727909722    2.9478062335
H       -0.9651646867   -2.5012101778    3.7773528249
18   
Generated by ForceBalance from scan.xyz: Frame 20 of 24
C       -9.4692499326   -0.2203268604    1.0793091499
C       -7.7256451828   -2.2222437853   -1.6575500231
C       -9.8941500065   -2.6567033676    1.3059499439
C      -11.7590992600   -1.0487632648    0.6319833326
C      -10.2574293555   -1.3562897370    0.5547218449
N       -8.8789960800    0.6900812415    1.4966453530
N       -8.7597026294   -1.3580056093   -1.2136220673
N       -9.8956107731   -1.7122829220   -0.8566729082
N       -6.9690183724   -1.7222156272   -2.6838146928
O       -7.5033881281   -3.2498069653   -1.0346545435
H      -10.4877079980   -3.4823280853    0.9072726277
H       -8.8357501057   -2.8947164293    1.1912835111
H      -10.1295698734   -2.5170045396    2.3647726465
H      -12.3133029083   -1.8715193722    0.1725373300
H      -11.9945454852   -0.1230814001    0.1010704363
H      -12.0738425581   -0.9440058672    1.6728184677
H       -6.0290854589   -2.0939166588   -2.7513060915
H       -7.0769898641   -0.7391539891   -2.9025633728
18   
Generated by ForceBalance from scan.xyz: Frame 21 of 24
C       -0.7731228873    1.2061179617    1.9410555531
C        0.2916029435   -2.6329091513    2.0467132449
C        1.0417300421    0.6676075706    0.3371850385
C        1.5230277528    1.9396489001    2.4959122006
C        0.6615840123    0.8624058213    1.8208302536
N       -1.8888213011    1.5137013733    2.0506083528
N        0.0450820756   -1.2688590654    2.4602916616
N        0.9944840242   -0.4674961130    2.4159724052
N       -0.1840173964   -3.5702727729    2.9148116878
O        0.7663688954   -2.8385929380    0.9438695724
H        2.0925090639    0.3771458767    0.2679906054
H        0.4311210893   -0.1121592504   -0.1205737997
H        0.8890479729    1.6132203737   -0.1899268430
H        2.5727578663    1.6390370304    2.4432745993
H        1.2420677388    2.0610302927    3.5449991630
H        1.4000343865    2.8991731368    1.9885596613
H       -0.3360894992   -4.5013305521    2.5468696385
H       -0.7821432967   -3.2649768771    3.6722406934
18   
Generated by ForceBalance from scan.xyz: Frame 22 of 24
C       -0.7717864191    1.2034074483    1.9386201589
C        0.3382067417   -2.6964691988    2.0922445283
C        1.0420751872    0.8024062037    0.2957874636
C        1.5276112511    1.8567902967    2.5669290928
C        0.6591873432    0.8547419201    1.7901190007
N       -1.8826236436    1.5189962284    2.0716998345
N        0.0065993558   -1.2927170528    2.2987776599
N        0.9770228607   -0.5185779339    2.2773764244
N       -0.1747982705   -3.5071620021    3.0601805944
O        0.9233686045   -3.0454242291    1.0844402565
H        2.0844305261    0.4887657687    0.2009731694
H        0.4095729648    0.0907966342   -0.2382903240
H        0.9208332593    1.7972560109   -0.1402875162
H        2.5764228563    1.5614402455    2.4795029192
H        1.2517470317    1.8716621389    3.6242943679
H        1.4033071293    2.8626794452    2.1595546732
H       -0.2266390160   -4.4972442843    2.8548505096
H       -0.8566331193   -3.1236966249    3.7025497665
18   
Generated by ForceBalance from scan.xyz: Frame 23 of 24
C       -0.7525046062    1.1155634207    1.9631486823
C        0.4913223551   -2.7570076085    2.2261190754
C        1.0007143795    0.9501101144    0.2208964401
C        1.5531444859    1.7673413705    2.5715203965
C        0.6801168492    0.8240977775    1.7253521122
N       -1.8648467519    1.3944319420    2.1528831218
N        0.0975892454   -1.3374584019    2.2338382121
N        1.0586463650   -0.5706722240    2.0729153382
N       -0.3086255251   -3.4524733424    3.0818800000
O        1.3565297928   -3.2137626614    1.5062199482
H        2.0459422552    0.6799848301    0.0519727486
H        0.3631993692    0.2846002808   -0.3652258684
H        0.8361020201    1.9810858458   -0.1018633869
H        2.6058187392    1.5273347879    2.4019540672
H        1.3307506125    1.6502285683    3.6350650778
H        1.3699214952    2.8061615000    2.2876518405
H       -0.2684607368   -4.4627922634    3.0535413333
H       -1.1387155230   -3.0069148758    3.4507199462
18   
Generated by ForceBalance from scan.xyz: Frame 24 of 24
C       -0.7304173509    1.0595535966    1.9830981472
C        0.6383021611   -2.7519725634    2.4919382824
C        0.9275592894    1.0740873847    0.1463871384
C        1.6103798468    1.6389926377    2.5353584194
C        0.6860404513    0.7879856224    1.6420671561
N       -1.8330245872    1.3249786990    2.2377557147
N        0.1766410712   -1.3510528373    2.2928456228
N        1.0834404771   -0.6241556512    1.8621627291
N       -0.4200469493   -3.4599673354    2.9655417171
O        1.7535028045   -3.1746521842    2.2685302889
H        1.9668230651    0.8421994409   -0.0990589022
H        0.2710201596    0.4599827945   -0.4746554280
H        0.7315078418    2.1276722088   -0.0663041159
H        2.6513601722    1.4078018423    2.2965473006
H        1.4322870791    1.4230673446    3.5915295379
H        1.4251977900    2.7007012283    2.3556910696
H       -0.3090206404   -4.4443612825    3.1658537487
H       -1.3095235820   -3.0023389341    3.1139818506
