30   

C        7.4088334641   -5.7624291309    4.4739046734
C        8.7089000013   -8.9478524068    2.0668552956
C        8.8866114770   -8.9007612286    0.6899601592
C        7.7654705085   -8.1200765293    2.6771893935
C        5.8571504633   -6.0610437613    7.1830809830
C        8.1127572037   -8.0277606805   -0.0707296575
C        6.6854397551   -6.2884163720    8.2862560480
C        7.2540262336   -3.9524744754    8.3331011270
C        6.9635184810   -7.2199396338    1.9335607129
C        5.7275595595   -4.7735794359    6.6358929717
C        7.3937400049   -5.2355196092    8.8693271392
C        7.1515897956   -7.1936128431    0.5183077097
C        6.4267248578   -3.7050462756    7.2307200509
C        6.1084805353   -5.8316144251    3.8837436596
C        5.9329487567   -6.3757122745    2.6157510687
N        8.4741614920   -5.7269675212    4.9462703625
N        4.8938440068   -4.5388546062    5.5494389201
N        4.9926909253   -5.1386528007    4.4079740370
O        4.7966623889   -6.1701124576    1.9578735073
Cl       8.4320210765   -5.5144984834   10.2447980360
Cl       6.3142795196   -6.0766599455   -0.5487106092
Cl       6.2970051110   -2.0743340940    6.6010453501
H        9.2968071747   -9.6330919349    2.6675416881
H        9.6231874756   -9.5368176640    0.2112608162
H        7.6351326718   -8.2300383305    3.7469806695
H        5.3097587233   -6.8858517580    6.7417227861
H        8.2638459080   -7.9780722284   -1.1428263929
H        6.7837106911   -7.2872283833    8.6951166401
H        7.8006787152   -3.1295478651    8.7771093541
H        4.2276539768   -5.5760911770    2.4811427775
30   

C        7.4340434616   -5.6053752183    4.3806631357
C        8.6975989919   -8.9368622739    2.1234760940
C        8.8702966357   -8.9521592677    0.7456372788
C        7.7602404876   -8.0782919159    2.6990744064
C        5.9809576205   -6.1515413114    7.1323034969
C        8.0985865992   -8.1095096424   -0.0502466405
C        6.8314915020   -6.3724291917    8.2195117590
C        7.2333603435   -4.0070573872    8.3781980028
C        6.9576380379   -7.2089152730    1.9199400971
C        5.7538542788   -4.8514581284    6.6508194263
C        7.4672404595   -5.3012770393    8.8508421179
C        7.1429558018   -7.2444026560    0.5025722425
C        6.3814163946   -3.7660628689    7.2933581626
C        6.1170346657   -5.8311998838    3.8741944966
C        5.9375271114   -6.3380708243    2.5859440417
N        8.5147869708   -5.4456031661    4.7871627221
N        4.8912290512   -4.6218344902    5.5856028106
N        4.9810876315   -5.2057289808    4.4359857518
O        4.8528744645   -6.0141993870    1.8923555684
Cl       8.5308055252   -5.5718810419   10.2084660314
Cl       6.3095947513   -6.1805607985   -0.6207685842
Cl       6.1316276883   -2.1198494781    6.7451345640
H        9.2855365440   -9.5965754795    2.7520606804
H        9.6018664673   -9.6126415817    0.2930341023
H        7.6373341368   -8.1349391920    3.7740294091
H        5.4881100717   -6.9907887895    6.6553618678
H        8.2465116938   -8.1091965824   -1.1239639542
H        7.0019242674   -7.3802148350    8.5796364071
H        7.7237195297   -3.1696661234    8.8594431184
H        4.3003047238   -5.4126557912    2.4245270148
30   

C        7.4455351276   -5.4645795599    4.3275162015
C        8.7049366047   -8.9360596781    2.1968707574
C        8.8754225660   -9.0078718409    0.8208447476
C        7.7719027312   -8.0511520200    2.7382191616
C        6.0999038630   -6.2308262813    7.1177850307
C        8.1062386685   -8.1948660322   -0.0073482697
C        6.9739581940   -6.4234004105    8.1914104636
C        7.2149998761   -4.0414823385    8.4150407550
C        6.9696241391   -7.2118379205    1.9262430468
C        5.7772508228   -4.9365367237    6.6778237493
C        7.5406769708   -5.3294510926    8.8488098152
C        7.1539818974   -7.3040421822    0.5097204139
C        6.3370914612   -3.8290473973    7.3450274950
C        6.1432556347   -5.8478668214    3.8836756551
C        5.9606342602   -6.3144753670    2.5735965907
N        8.5175369549   -5.1776120871    4.6835793602
N        4.8840931680   -4.7368743577    5.6318259626
N        4.9813723310   -5.3054329756    4.4755911717
O        4.9437916399   -5.8721950354    1.8471299589
Cl       8.6312078274   -5.5649030002   10.1914390734
Cl       6.3186543315   -6.2971104105   -0.6637214191
Cl       5.9702990454   -2.1889567125    6.8463169337
H        9.2923309467   -9.5712259495    2.8507315667
H        9.6034833169   -9.6891955572    0.3941962328
H        7.6558486129   -8.0582730462    3.8154907630
H        5.6592214745   -7.0879679522    6.6220263570
H        8.2522482996   -8.2400855282   -1.0804067854
H        7.2149989146   -7.4269103207    8.5218056391
H        7.6520387618   -3.1863094892    8.9160679810
H        4.4047513674   -5.2641489892    2.3855912728
30   

C        7.4350055742   -5.3207886432    4.2675276226
C        8.6985797668   -8.9384637052    2.2365586971
C        8.8681093762   -9.0586879849    0.8640148326
C        7.7746261194   -8.0263751029    2.7472701804
C        6.2010602983   -6.2964745498    7.0861996520
C        8.1065725333   -8.2672217147    0.0085546852
C        7.0942691260   -6.4521140113    8.1498025110
C        7.1744606752   -4.0646476320    8.4245133583
C        6.9797252774   -7.2073934436    1.9074151501
C        5.7853371461   -5.0184668381    6.6791086933
C        7.5897605205   -5.3365624014    8.8281208049
C        7.1626306784   -7.3497843591    0.4936941181
C        6.2750280508   -3.8896934536    7.3656548244
C        6.1716082716   -5.8533577842    3.8700775049
C        5.9902594090   -6.2756751409    2.5350625248
N        8.4778863809   -4.9098737749    4.5861409868
N        4.8661083788   -4.8592579120    5.6491100283
N        4.9828429791   -5.4067238933    4.4849844685
O        5.0591349430   -5.7133615482    1.7798840878
Cl       8.7019976658   -5.5263960987   10.1600548056
Cl       6.3259418193   -6.3931847747   -0.7202945391
Cl       5.7934299318   -2.2681116874    6.9054831066
H        9.2811557375   -9.5556898227    2.9115735364
H        9.5892933771   -9.7612825927    0.4607936334
H        7.6657269026   -7.9902692721    3.8247486899
H        5.8143053706   -7.1706274813    6.5753920269
H        8.2504413742   -8.3527412842   -1.0623666104
H        7.4043754739   -7.4438728182    8.4571717761
H        7.5563911221   -3.1926173131    8.9413302407
H        4.5345443610   -5.0952665697    2.3208953051
30   

C        7.4209746260   -5.1898542775    4.2369442718
C        8.6399673692   -8.9740333784    2.2552619337
C        8.8047975490   -9.1236620902    0.8851299917
C        7.7444526395   -8.0254851542    2.7498479716
C        6.3130634445   -6.3616989877    7.0811948530
C        8.0655813954   -8.3262451378    0.0157547507
C        7.2283681759   -6.4790676859    8.1305974065
C        7.1661869439   -4.0957046311    8.4439530966
C        6.9747015772   -7.1971577391    1.8955766867
C        5.8124062474   -5.1060189782    6.7028785738
C        7.6634511328   -5.3461229374    8.8214435254
C        7.1498656407   -7.3720310550    0.4839839627
C        6.2425161575   -3.9597911300    7.4003287223
C        6.2083674831   -5.8515453847    3.8791496148
C        6.0295282900   -6.2153145929    2.5129355336
N        8.4227686110   -4.6682173401    4.5233381154
N        4.8653437301   -4.9906092560    5.6930482001
N        5.0001541237   -5.5091633078    4.5182654842
O        5.2064935763   -5.5226940108    1.7432073273
Cl       8.8015067560   -5.4888784635   10.1372664563
Cl       6.3250103151   -6.4311787351   -0.7502407693
Cl       5.6560162000   -2.3639806178    6.9730181212
H        9.2060273761   -9.5949075258    2.9409178246
H        9.5046273098   -9.8543364578    0.4943526597
H        7.6453590316   -7.9615921115    3.8269936491
H        5.9719989105   -7.2494959579    6.5614484986
H        8.2033917493   -8.4380924529   -1.0535583288
H        7.6016541632   -7.4548754241    8.4180384965
H        7.5013697811   -3.2101020797    8.9700709286
H        4.7086078695   -4.8871998713    2.2889080937
30   

C        7.4067228046   -5.0467413213    4.2213712224
C        8.5454168525   -9.0522181557    2.2662631369
C        8.7033187290   -9.2289016867    0.8985021344
C        7.6986172505   -8.0529408396    2.7467239678
C        6.4381898411   -6.4107931887    7.0808901814
C        8.0038091676   -8.4091447594    0.0171025380
C        7.3695580995   -6.4660631989    8.1210001903
C        7.1344743313   -4.0954272690    8.4497928080
C        6.9743346023   -7.1972609736    1.8797226809
C        5.8407393168   -5.1943888271    6.7172307941
C        7.7259583763   -5.3079427986    8.8152226823
C        7.1375483493   -7.4031130390    0.4707037277
C        6.1923968453   -4.0227162154    7.4163110155
C        6.2692662889   -5.8362606944    3.8795692098
C        6.0992000884   -6.1464907901    2.4838271896
N        8.3457059096   -4.4126766500    4.4931080194
N        4.8731416781   -5.1487211728    5.7222955108
N        5.0421112858   -5.6320860369    4.5374475623
O        5.4018599143   -5.3397827690    1.7026473708
Cl       8.8826249030   -5.3740230395   10.1207924347
Cl       6.3447369778   -6.4544678202   -0.7785398814
Cl       5.4850964627   -2.4726858440    7.0038173452
H        9.0812238589   -9.6896744647    2.9609650736
H        9.3665004870   -9.9985312508    0.5187270128
H        7.6096082322   -7.9648573632    3.8229973263
H        6.1572229596   -7.3180964894    6.5588939681
H        8.1331581781   -8.5454773210   -1.0504512833
H        7.8158283912   -7.4134351226    8.3992807227
H        7.4087649170   -3.1903247733    8.9779983878
H        4.9433557402   -4.6732080070    2.2453220777
30   

C        5.9372704288   -7.1171198855    5.0130479338
C        9.3799326194   -7.2156044399    1.5849880227
C        9.2231857258   -7.8145626425    0.3423923827
C        8.2598738044   -6.7919986274    2.3005600378
C        5.6753233156   -4.9907992507    7.6865191129
C        7.9439825613   -7.9764586580   -0.1830997696
C        6.3113963287   -5.4342828453    8.8481092976
C        8.4433118686   -5.1602582350    7.7713758496
C        6.9438099702   -6.9484776360    1.8014678712
C        6.4146563426   -4.6394255564    6.5486521623
C        7.7030338925   -5.5217790454    8.9009360857
C        6.8002419796   -7.5528410931    0.5102209647
C        7.8236449371   -4.7172348608    6.5955899446
C        6.0752307887   -6.0981059409    4.0302329080
C        5.8021410072   -6.4972657289    2.6513144460
N        5.8118968848   -7.9593974110    5.8083507276
N        5.7356869712   -4.1640039462    5.4357104878
N        5.7181187776   -4.7647536649    4.2929741444
O        4.5589541808   -6.6823349599    2.2491925103
Cl       8.5055845307   -6.0593085890   10.3548032738
Cl       5.2647260580   -7.8327661520   -0.2977936917
Cl       8.8212174001   -4.2297983978    5.2386234543
H       10.3718248151   -7.0796019321    2.0018231220
H       10.0896007160   -8.1535948195   -0.2149535677
H        8.4423102805   -6.3337602333    3.2645951266
H        4.5932605839   -4.9241756841    7.6588508786
H        7.8238160406   -8.4456429631   -1.1528168657
H        5.7233720778   -5.7111305534    9.7157723318
H        9.5240437899   -5.2135927609    7.8100888010
H        3.9395072848   -6.3738854468    2.9337900519
30   

C        6.0588896918   -7.0799740361    4.8954892470
C        9.3804817539   -7.4218625356    1.7055879209
C        9.2163424646   -8.0578036247    0.4826673977
C        8.2772232855   -6.8722127513    2.3586201891
C        5.6577955186   -5.1200548326    7.7252336945
C        7.9473219594   -8.1323262413   -0.0853075255
C        6.3938127655   -5.5400846610    8.8350725661
C        8.4293985638   -5.0264234584    7.6642630609
C        6.9712015837   -6.9304075600    1.8118422940
C        6.2974141785   -4.6607839724    6.5656282658
C        7.7880654691   -5.4959284294    8.8144858188
C        6.8213193538   -7.5790983130    0.5428830612
C        7.7091802152   -4.6048236846    6.5384938391
C        6.0720869798   -5.9986020590    3.9689482899
C        5.8487993106   -6.3170070767    2.5849664348
N        6.0486665510   -7.9713359886    5.6459583116
N        5.5099009105   -4.2242983820    5.5081760633
N        5.5269294553   -4.7531999185    4.3300094429
O        4.6222717858   -6.3242527587    2.0889644088
Cl       8.7140224637   -6.0056982214   10.2036206657
Cl       5.2950641051   -7.7768890015   -0.3057676151
Cl       8.5861639156   -3.9823971844    5.1528801798
H       10.3654213209   -7.3516908316    2.1539409050
H       10.0691652290   -8.4935418596   -0.0263403285
H        8.4661970112   -6.3813433462    3.3059065736
H        4.5743496345   -5.1584175485    7.7543661387
H        7.8208582907   -8.6350882930   -1.0371961685
H        5.8814338921   -5.9023247059    9.7191405662
H        9.5109303283   -4.9782991610    7.6471265594
H        4.0080895133   -5.9236217677    2.7296141073
30   

C        6.2060101107   -7.0313569893    4.8434914631
C        9.3531396381   -7.5204975196    1.7357998470
C        9.1660356472   -8.1783965983    0.5278728105
C        8.2723701011   -6.9075972442    2.3697471128
C        5.6204087981   -5.1767287552    7.7483800330
C        7.8966712884   -8.2131293093   -0.0433198682
C        6.4075091524   -5.5646304507    8.8345158370
C        8.3779933471   -4.9053403153    7.6263452634
C        6.9671599287   -6.9213743864    1.8176798899
C        6.2011161317   -4.6614707800    6.5813484704
C        7.7951826734   -5.4321597492    8.7828403660
C        6.7935836474   -7.5960993651    0.5658975561
C        7.6062641461   -4.5134294268    6.5239027443
C        6.0559800861   -5.9385720667    3.9407602165
C        5.8717650633   -6.2238300139    2.5594249026
N        6.3378566920   -7.9309806494    5.5723779681
N        5.3581796468   -4.2710725441    5.5477684859
N        5.3969260476   -4.7645735701    4.3541781521
O        4.6772973089   -6.0935130708    2.0034830718
Cl       8.7841551604   -5.9049144865   10.1413816583
Cl       5.2588678699   -7.7635893927   -0.2736932071
Cl       8.4116537692   -3.8185669310    5.1289499230
H       10.3389261457   -7.4800358310    2.1859427694
H       10.0012400091   -8.6622478280    0.0333246746
H        8.4791743171   -6.3940222289    3.3014932613
H        4.5426928145   -5.2857621895    7.8013557246
H        7.7514083751   -8.7357339235   -0.9817107743
H        5.9401664940   -5.9718921857    9.7239266175
H        9.4537775893   -4.7897111817    7.5854167166
H        4.0777764681   -5.6440309117    2.6258051966
30   

C        6.3706007104   -6.9658032570    4.8205047074
C        9.3491032695   -7.5637642983    1.7276863074
C        9.1299477153   -8.2564101287    0.5446494477
C        8.2898871284   -6.9123206601    2.3597339116
C        5.5530237811   -5.2196392608    7.7702860920
C        7.8500329429   -8.2885197613   -0.0028373167
C        6.3624180514   -5.5734451173    8.8516338077
C        8.2905144565   -4.7908865466    7.6489012060
C        6.9755176246   -6.9211330816    1.8302999608
C        6.1012574782   -4.6607594561    6.6077097861
C        7.7403623910   -5.3632354356    8.7997443772
C        6.7686978128   -7.6335184463    0.6055316066
C        7.4959729945   -4.4300641162    6.5517692249
C        6.0492721750   -5.8971223467    3.9316857094
C        5.9034578389   -6.1698924152    2.5549107317
N        6.6470335759   -7.8440379949    5.5350041098
N        5.2336379538   -4.3159229605    5.5776930966
N        5.3017102354   -4.7869605023    4.3756835927
O        4.7534202035   -5.9223863732    1.9451245803
Cl       8.7567870125   -5.7972742970   10.1510204530
Cl       5.2108737986   -7.8172387464   -0.1866560177
Cl       8.2596414214   -3.6765423567    5.1637103690
H       10.3435173450   -7.5241507206    2.1584782144
H        9.9482854838   -8.7696296039    0.0515270567
H        8.5210417462   -6.3645539402    3.2660736713
H        4.4833760130   -5.3904326842    7.8231349531
H        7.6786506902   -8.8407045412   -0.9196098024
H        5.9202628697   -6.0157960678    9.7371366537
H        9.3582968728   -4.6160926984    7.6078054800
H        4.1638000432   -5.4414391753    2.5536404942
30   

C        6.5039044237   -6.9209392499    4.8000522386
C        9.3529593195   -7.6127885660    1.7020078987
C        9.1032211388   -8.3176238966    0.5320567042
C        8.3156111996   -6.9326712307    2.3403537422
C        5.5003213280   -5.2981498411    7.7821288663
C        7.8145679297   -8.3339672975    0.0044607878
C        6.3313304171   -5.6144635393    8.8586795571
C        8.2061863198   -4.7004310431    7.6646272359
C        6.9936724279   -6.9251087326    1.8306287986
C        6.0113878327   -4.6932812106    6.6257932376
C        7.6938800375   -5.3204205809    8.8082550551
C        6.7555829831   -7.6505243891    0.6205149691
C        7.3891735124   -4.3744372462    6.5728963823
C        6.0368460989   -5.8959649625    3.9230356869
C        5.9411662511   -6.1374189606    2.5459636769
N        6.9006655293   -7.7620843058    5.5026230765
N        5.1222698755   -4.3953724525    5.5991205172
N        5.2168002794   -4.8462378171    4.3906287241
O        4.8602673212   -5.7600487129    1.8765186714
Cl       8.7371939748   -5.7107622610   10.1524209192
Cl       5.1763661526   -7.8277932751   -0.1295811413
Cl       8.1034455478   -3.5591464603    5.1934387410
H       10.3546479684   -7.5841420290    2.1164994939
H        9.9045203082   -8.8525561168    0.0340693141
H        8.5712777506   -6.3690797568    3.2302136286
H        4.4432846019   -5.5350032076    7.8333867801
H        7.6181343127   -8.8973165902   -0.9003895471
H        5.9183195133   -6.0937386020    9.7389972563
H        9.2615505877   -4.4615753052    7.6245612402
H        4.2729116995   -5.2607486809    2.4726624305
30   

C        6.6417824224   -6.8402206224    4.8031461460
C        9.3660272391   -7.6225529750    1.6787090134
C        9.0789869765   -8.3372337223    0.5230610533
C        8.3544636742   -6.9168310965    2.3307924825
C        5.4524588647   -5.3697978080    7.8161682675
C        7.7790735132   -8.3371491338    0.0230573793
C        6.2992154467   -5.6480254218    8.8909301401
C        8.1134794223   -4.5931428234    7.7195759942
C        7.0219835374   -6.8950068271    1.8501334293
C        5.9259064607   -4.7143382081    6.6716910162
C        7.6398415019   -5.2650601928    8.8505158738
C        6.7464963022   -7.6281062921    0.6545202076
C        7.2794707999   -4.3024327938    6.6305392537
C        6.0321899392   -5.8753067708    3.9442173457
C        5.9876343418   -6.0835288238    2.5655867613
N        7.1529393921   -7.6307896077    5.4906651781
N        5.0220769877   -4.4614896858    5.6457630618
N        5.1445607701   -4.8900664120    4.4314261849
O        4.9867036294   -5.5830024667    1.8513186224
Cl       8.7029699822   -5.6105278931   10.1914862495
Cl       5.1427858451   -7.7906018578   -0.0448246336
Cl       7.9419598438   -3.4194172567    5.2670196537
H       10.3770013752   -7.6050189312    2.0706898294
H        9.8601736960   -8.8920961018    0.0150383109
H        8.6402980099   -6.3410105318    3.2033239710
H        4.4130395828   -5.6759714982    7.8592247443
H        7.5526241449   -8.9084379701   -0.8696824314
H        5.9158658826   -6.1673568419    9.7618554997
H        9.1513992680   -4.2862568351    7.6871081817
H        4.3990631247   -5.0739589731    2.4391617517
30   

C        6.7487598552   -6.7880782302    4.8092849220
C        9.3579859587   -7.6679074934    1.6400005977
C        9.0325227266   -8.3870963698    0.4969587666
C        8.3733200702   -6.9411238749    2.3103875013
C        5.4085865311   -5.4676470139    7.8371998962
C        7.7214231605   -8.3694060242    0.0268715613
C        6.2771243194   -5.6915843402    8.9072670656
C        8.0027519969   -4.4897478655    7.7434707480
C        7.0304781738   -6.9044260362    1.8610948511
C        5.8276419142   -4.7670065983    6.6985344290
C        7.5850118791   -5.2083125656    8.8677910640
C        6.7167060503   -7.6388499801    0.6779479749
C        7.1452722902   -4.2509609061    6.6598657040
C        6.0056774042   -5.9100666458    3.9611116813
C        6.0118548789   -6.0782403188    2.5810984261
N        7.3649112357   -7.5077460693    5.4888851349
N        4.9054953246   -4.5763325430    5.6754247949
N        5.0521833187   -4.9931812737    4.4592813470
O        5.1015829660   -5.4622295959    1.8342575484
Cl       8.6759209982   -5.4887679381   10.2016621717
Cl       5.0898528178   -7.7779200163    0.0294413433
Cl       7.7340234956   -3.3069779988    5.3034080399
H       10.3783031380   -7.6623595729    2.0073662412
H        9.7927637476   -8.9583347300   -0.0245028140
H        8.6905938405   -6.3586817430    3.1672513959
H        4.3954936581   -5.8520984906    7.8789281206
H        7.4641700793   -8.9435908382   -0.8555784463
H        5.9367626028   -6.2473438104    9.7735159903
H        9.0148405655   -4.1060395961    7.7114663981
H        4.5095539444   -4.9485379407    2.4137689377
30   

C        6.8955024577   -6.6818074657    4.7914499320
C        9.3649745950   -7.7062671835    1.5589030529
C        8.9870383339   -8.4395406067    0.4406442379
C        8.4175777854   -6.9491328109    2.2497970818
C        5.3692200097   -5.5903393598    7.8152706242
C        7.6613008301   -8.4038727988    0.0140510014
C        6.2384336246   -5.7800349440    8.8914917151
C        7.8761608736   -4.4016876148    7.7978852461
C        7.0613362494   -6.8975553061    1.8455545774
C        5.7457947768   -4.8187475929    6.7083722018
C        7.5031932059   -5.1913460319    8.8899230600
C        6.6950248542   -7.6421109707    0.6865781358
C        7.0163214857   -4.1953334792    6.7094246290
C        6.0229157525   -5.9186130978    3.9547775861
C        6.0666587510   -6.0516126296    2.5735291312
N        7.6125264001   -7.3103819303    5.4627932548
N        4.8290541583   -4.6675701832    5.6745578827
N        5.0118154362   -5.0670933720    4.4569956157
O        5.2483088676   -5.3344237512    1.8103714617
Cl       8.5957284995   -5.4311406371   10.2304187828
Cl       5.0412974619   -7.7511820349    0.1047405327
Cl       7.5434137073   -3.1649145291    5.3912859301
H       10.3974543427   -7.7129737579    1.8905253104
H        9.7181922762   -9.0345925417   -0.0955726775
H        8.7763050152   -6.3549849453    3.0815789751
H        4.3903438501   -6.0566596540    7.8266221776
H        7.3624839298   -8.9874807163   -0.8488862799
H        5.9328706669   -6.3916194389    9.7326821115
H        8.8546655597   -3.9378428812    7.7945012382
H        4.6562729850   -4.8124138728    2.3824697192
