27   

C       -4.3482432933    0.0095606668    1.5992914007
C       -3.0710161919   -1.4971825999    0.2018905560
C       -3.1782162619    0.3869948830    2.2624211780
C       -1.8982542656   -1.0996937887    0.8559296212
C       -4.3105141943   -0.9378493902    0.5599144418
C       -1.9397891234   -0.1620471363    1.9029963818
C       -0.6837364566    1.5177410169    3.9256128068
C        0.8138457052    0.7248310024    1.6896288057
C       -5.5347088794   -1.3838027287   -0.1859329166
C       -6.8028352728   -0.5595854737   -0.0601155550
C       -0.1345390229   -1.2119469323    3.5232615304
O       -5.5037885589   -2.3360972558   -0.9557387823
S       -0.4131294532    0.3901044227    2.7444173740
H       -5.2817914317    0.4643253546    1.9103248664
H       -3.0106906996   -2.2291503174   -0.5979720993
H       -3.2326057978    1.1275639435    3.0550821099
H       -0.9491336505   -1.5214794259    0.5402320626
H       -0.0837139310    2.4173444105    3.9547524586
H       -1.4399745704    1.3560608451    4.6813769939
H        1.4361010855    1.5943877540    1.8548539321
H        0.9855494016    0.1015737366    0.8234184908
H       -6.5800511691    0.5001899647   -0.2099635849
H       -7.2475198189   -0.7078259064    0.9272891348
H       -7.5235211319   -0.8733672482   -0.8209030821
H        0.7450678702   -1.1348907222    4.1653851776
H       -1.0052311359   -1.4763006578    4.1261298018
H        0.0395689322   -1.9684662087    2.7571598470
27   

C       -4.3808280661   -0.0640343584    1.6964884497
C       -3.1022815143   -1.5161853936    0.2418563896
C       -3.2038913395    0.3325419133    2.3361379570
C       -1.9233061725   -1.0994855310    0.8722239077
C       -4.3439849782   -0.9957302678    0.6453361776
C       -1.9614802616   -0.1795924809    1.9356693022
C       -0.6945181342    1.5012286620    3.9502150794
C        0.7606783265    0.7825372448    1.6619594430
C       -5.5745229927   -1.4432099856   -0.0897748728
C       -6.7410593191   -0.4778210177   -0.1889649791
C       -0.0857321299   -1.2072835099    3.4894074630
O       -5.5854927139   -2.4799908145   -0.7416792546
S       -0.4270729343    0.3988670761    2.7447577253
H       -5.3214564445    0.3592646994    2.0307792449
H       -3.0482214842   -2.2319721844   -0.5729597943
H       -3.2560698341    1.0595145162    3.1414244091
H       -0.9723049086   -1.4911739161    0.5249914280
H       -0.1184343007    2.4164335187    3.9764980680
H       -1.4243228285    1.3076139302    4.7242428524
H        1.3633534573    1.6665069544    1.8232562948
H        0.9256215611    0.1765393211    0.7822987126
H       -6.3761700494    0.5378690433   -0.3639312780
H       -7.3246118865   -0.5036665825    0.7347518103
H       -7.3874972227   -0.7640530821   -1.0236492730
H        0.8090139939   -1.1172241324    4.1085119805
H       -0.9323259601   -1.5038950381    4.1112958427
H        0.0866316539   -1.9469115244    2.7065943506
27   

C       -4.3875713572   -0.1039853112    1.7676009213
C       -3.0968796649   -1.5019768800    0.2700915651
C       -3.2110756691    0.3075904513    2.3988590263
C       -1.9187348473   -1.0702874005    0.8917533721
C       -4.3422949139   -1.0194268138    0.7050634066
C       -1.9629975201   -0.1708159075    1.9728649868
C       -0.7045164806    1.5014171035    3.9997322122
C        0.7343903307    0.8523905039    1.6805634469
C       -5.5737723868   -1.4689099375   -0.0301289147
C       -6.6083132631   -0.4171163194   -0.3813399113
C       -0.0461267537   -1.1859782378    3.4840666550
O       -5.6369056938   -2.5813789294   -0.5377424755
S       -0.4303262168    0.4254087957    2.7722564169
H       -5.3363742426    0.2911833281    2.1136867094
H       -3.0431785631   -2.2013570835   -0.5588147878
H       -3.2681369736    1.0197255199    3.2169641996
H       -0.9640581552   -1.4339505217    0.5246908719
H       -0.1476187549    2.4281495719    4.0340214522
H       -1.4192564941    1.2790624314    4.7800819822
H        1.3202290808    1.7463139217    1.8488690036
H        0.9008816599    0.2643852306    0.7890773604
H       -6.1139465618    0.5193723419   -0.6534062792
H       -7.2679467424   -0.2450586698    0.4727333366
H       -7.2084864667   -0.7562464040   -1.2305389842
H        0.8551629193   -1.0883331783    4.0924385671
H       -0.8777940931   -1.5105717484    4.1121113107
H        0.1301761988   -1.9084441163    2.6862426922
27   

C       -4.4124581743   -0.1441499683    1.8728018738
C       -3.1494055623   -1.4691470829    0.2894700850
C       -3.2230485106    0.2745021693    2.4742088965
C       -1.9581643229   -1.0311703897    0.8814514980
C       -4.3862697554   -1.0286118448    0.7852454381
C       -1.9816712387   -0.1653812841    1.9906322556
C       -0.6847404000    1.4779836691    4.0170130179
C        0.6901156728    0.9055624030    1.6391560287
C       -5.6419919912   -1.4758773783    0.0858991540
C       -6.5306625868   -0.3907090430   -0.4878215952
C       -0.0050746039   -1.1863989007    3.4161727821
O       -5.7961953358   -2.6422463801   -0.2513731678
S       -0.4336757988    0.4357102204    2.7559576851
H       -5.3583809382    0.2187071995    2.2601278564
H       -3.1155636254   -2.1440416550   -0.5603076668
H       -3.2655738543    0.9610623774    3.3147332797
H       -1.0100189933   -1.3641343811    0.4708861449
H       -0.1404666936    2.4119634625    4.0566273151
H       -1.3713877001    1.2263127951    4.8135391264
H        1.2678709265    1.8041293547    1.8106543494
H        0.8381055742    0.3406062204    0.7297185930
H       -5.9178104468    0.4120860020   -0.9064870853
H       -7.1726100898    0.0169601985    0.2968189306
H       -7.1586557895   -0.8051451238   -1.2815857087
H        0.9138624117   -1.0904957348    3.9978261777
H       -0.8117396854   -1.5375441372    4.0623312723
H        0.1548883899   -1.8872676881    2.5959465525
27   

C       -4.4162457200   -0.1440601504    1.9956611247
C       -3.2100508022   -1.4342683336    0.3439659231
C       -3.2076251981    0.2645227213    2.5641683069
C       -1.9986352619   -1.0070471268    0.9026288688
C       -4.4280687429   -1.0032668278    0.8886396229
C       -1.9836664913   -0.1632920116    2.0288385706
C       -0.6196552986    1.4382236931    4.0442811654
C        0.6720124564    0.9209742750    1.6079019297
C       -5.7204695383   -1.4390049440    0.2419886151
C       -6.4470653211   -0.3930635208   -0.5772041361
C        0.0428630382   -1.2112215773    3.3622489973
O       -6.0147252764   -2.6225824947    0.1468495475
S       -0.4108361799    0.4239794026    2.7530717328
H       -5.3498839759    0.2059056405    2.4229425890
H       -3.2063695736   -2.0949250219   -0.5172229605
H       -3.2222002465    0.9327765124    3.4202539389
H       -1.0650412065   -1.3318767619    0.4539884981
H       -0.0768181634    2.3729783897    4.0849277478
H       -1.2771627932    1.1671655652    4.8588713267
H        1.2530695183    1.8176184309    1.7783585129
H        0.7895180302    0.3759264048    0.6820480223
H       -5.7264894384    0.2229954257   -1.1217938492
H       -7.0406297328    0.2457582230    0.0813474992
H       -7.1117100275   -0.8792974735   -1.2969060089
H        0.9806232479   -1.1257442783    3.9147557760
H       -0.7409359214   -1.5787220822    4.0272236402
H        0.1765010458   -1.8933755119    2.5218145945
27   

C       -4.4218069660   -0.1299550973    2.0714702897
C       -3.2555117368   -1.3273542539    0.3272788027
C       -3.2015279801    0.2528037490    2.6321830656
C       -2.0313405727   -0.9274010953    0.8792820637
C       -4.4606999716   -0.9138963362    0.9108675281
C       -1.9902491143   -0.1401230022    2.0447399960
C       -0.5783589335    1.3797855002    4.0917490892
C        0.6633357048    0.9460483967    1.6129428245
C       -5.7796197262   -1.3516149503    0.3156984732
C       -6.3687779973   -0.4433651550   -0.7417305889
C        0.0540105101   -1.2454030605    3.2988703732
O       -6.3777506410   -2.3378822841    0.7216783680
S       -0.4011805713    0.4137114054    2.7596929136
H       -5.3476873899    0.1801873142    2.5446269000
H       -3.2667648677   -1.9500166826   -0.5611255356
H       -3.1983903116    0.8705495491    3.5254588063
H       -1.1074914402   -1.2306383008    0.3966044757
H       -0.0281051943    2.3087588378    4.1572554503
H       -1.2229050516    1.0830155137    4.9077469894
H        1.2535629815    1.8321527545    1.8056605889
H        0.7602184902    0.4351489923    0.6655452689
H       -5.7593439387   -0.4868939479   -1.6479978720
H       -6.3948160329    0.5864195099   -0.3757058218
H       -7.3875711762   -0.7619396004   -0.9801335562
H        1.0031184918   -1.1857986696    3.8351599609
H       -0.7187519097   -1.6325444767    3.9656728127
H        0.1660688957   -1.8967375425    2.4312985392
27   

C       -4.4381845899   -0.1044203280    2.1162999454
C       -3.2957234790   -1.2187368276    0.3057521522
C       -3.2118805924    0.2650181462    2.6719459154
C       -2.0647072254   -0.8327933120    0.8531117413
C       -4.4952186106   -0.8308238447    0.9190062281
C       -2.0084846961   -0.0931363294    2.0483250229
C       -0.5688470485    1.3602559334    4.1262876490
C        0.6429079334    1.0032974040    1.6199693010
C       -5.8240149354   -1.2863909270    0.3672960829
C       -6.3018510717   -0.6052973810   -0.8974944316
C        0.0479113825   -1.2375281583    3.2424042639
O       -6.5889931266   -1.9668989598    1.0367665247
S       -0.4109108458    0.4383359912    2.7610645914
H       -5.3590105642    0.1686492349    2.6218634644
H       -3.3141639227   -1.8101233809   -0.6034163857
H       -3.1990296684    0.8418469131    3.5920485857
H       -1.1467803836   -1.1120610207    0.3452940085
H       -0.0126382626    2.2835161843    4.2170094309
H       -1.2071705340    1.0404350170    4.9384675225
H        1.2400500224    1.8794987954    1.8353410211
H        0.7260722921    0.5240434093    0.6549369766
H       -5.8036377727   -1.0440636977   -1.7654139590
H       -6.0749462046    0.4633198803   -0.8545245823
H       -7.3828145593   -0.7332588190   -1.0039289269
H        1.0038116002   -1.1961509520    3.7682494098
H       -0.7170589668   -1.6439568551    3.9067458619
H        0.1475036057   -1.8616274850    2.3535717703
27   

C       -4.4480321423   -0.0620154213    2.1443818503
C       -3.3335113577   -1.1196901758    0.2851788194
C       -3.2141381346    0.2880692658    2.6950201178
C       -2.0943826055   -0.7526095955    0.8277429548
C       -4.5260980413   -0.7493738575    0.9242020106
C       -2.0202018075   -0.0515453989    2.0446635702
C       -0.5494917240    1.3308192023    4.1502070158
C        0.6273926412    1.0554991093    1.6170592974
C       -5.8642697420   -1.1891262629    0.3924812833
C       -6.2258831995   -0.7560313169   -1.0135567274
C        0.0510696369   -1.2359039284    3.1728464719
O       -6.7240877026   -1.6373336842    1.1391799889
S       -0.4124956643    0.4550854738    2.7527465338
H       -5.3609153010    0.1964800454    2.6721017513
H       -3.3612014106   -1.6831895241   -0.6411437389
H       -3.1886835703    0.8353002421    3.6327803570
H       -1.1837621419   -1.0169431695    0.2991996902
H        0.0111694310    2.2486838565    4.2650017268
H       -1.1788775127    0.9860247535    4.9591497783
H        1.2302719768    1.9221872300    1.8538949228
H        0.6950471153    0.6096389395    0.6349752117
H       -5.7533909483   -1.4207756444   -1.7406731557
H       -5.8869818284    0.2688047653   -1.1871204307
H       -7.3106054093   -0.7959730338   -1.1477689408
H        1.0142853661   -1.2121437697    3.6863097430
H       -0.7048817552   -1.6630462263    3.8345107798
H        0.1375941475   -1.8308771818    2.2629542105
27   

C       -4.4334819984   -0.0574959380    2.2242573000
C       -3.3602632500   -1.0355993572    0.3005023671
C       -3.1888913939    0.2789102743    2.7582844978
C       -2.1101698801   -0.6824099647    0.8274361028
C       -4.5415354679   -0.7020477168    0.9814922049
C       -2.0096344671   -0.0290544826    2.0682170093
C       -0.4957510307    1.2915155272    4.1834964887
C        0.6289614255    1.0926884148    1.6192379710
C       -5.8945311045   -1.1144417613    0.4730791262
C       -6.1818128733   -0.9302841964   -1.0044203437
C        0.0832426008   -1.2438735812    3.1171420803
O       -6.8095631627   -1.3683174364    1.2457735981
S       -0.3880573821    0.4588099080    2.7574730473
H       -5.3327805816    0.1815920388    2.7838568018
H       -3.4017448021   -1.5611576059   -0.6471793194
H       -3.1444462215    0.7919802878    3.7144631076
H       -1.2111265275   -0.9198516612    0.2672271779
H        0.0680066335    2.2052765617    4.3147076819
H       -1.1092243389    0.9229440321    4.9941683563
H        1.2371650472    1.9517867149    1.8697515584
H        0.6764714474    0.6766007297    0.6230340527
H       -5.7837116074   -1.7767975465   -1.5692105531
H       -5.7225441453   -0.0051742049   -1.3630501166
H       -7.2617699705   -0.8716863357   -1.1676430932
H        1.0568267643   -1.2354114704    3.6111540176
H       -0.6591409945   -1.6905765346    3.7812569955
H        0.1503851425   -1.8112169499    2.1881617260
27   

C       -4.2216325185    0.7045666612    1.5244473121
C       -3.6042148101   -1.5195377934    0.8303487125
C       -2.9480630119    0.9003799947    2.0600018785
C       -2.3187742827   -1.3163974258    1.3516319108
C       -4.5683908196   -0.5000482721    0.8896741957
C       -1.9788219233   -0.1072150119    1.9824585373
C       -0.0874259785    1.6927893573    3.2841686328
C        0.8914046453   -0.3520084477    1.6291050128
C       -5.9662549242   -0.6944620598    0.3764169724
C       -6.1806562670   -1.6567428589   -0.7774529522
C       -0.5191325765   -0.9913335127    3.9953053227
O       -6.8858822885    0.0222528028    0.7505135131
S       -0.2989614142    0.1816290281    2.6438618634
H       -4.9553323784    1.5011964033    1.6035377078
H       -3.8325596763   -2.4753718339    0.3723544527
H       -2.7119305029    1.8507689059    2.5296487005
H       -1.5794403645   -2.1065167365    1.2644816911
H        0.7842769848    2.2729522901    3.0129742002
H       -0.8019456496    2.1008990174    3.9858141245
H        1.7821889134    0.2470747082    1.4936854147
H        0.7807029453   -1.2765564273    1.0806655581
H       -6.2185389323   -2.6831246525   -0.4039122950
H       -5.3703649845   -1.5600532394   -1.5050837082
H       -7.1261149961   -1.4279205722   -1.2777473396
H        0.3794980577   -0.9758173009    4.6151644751
H       -1.3812021062   -0.6927009564    4.5947515238
H       -0.6667398695   -1.9938901426    3.5922835769
27   

C       -4.2140601412    0.7387825520    1.5172938937
C       -3.5870721371   -1.4616152696    0.7584611866
C       -2.9455741873    0.9197287431    2.0695252614
C       -2.3065548580   -1.2719373172    1.2969887430
C       -4.5563186571   -0.4484044176    0.8468584952
C       -1.9743556151   -0.0834905650    1.9694242458
C       -0.0977092792    1.6763238626    3.3458949841
C        0.8995087976   -0.3082250236    1.6295144069
C       -5.9440993839   -0.6186593543    0.2998003450
C       -6.2119255793   -1.7638552265   -0.6597871918
C       -0.5264893574   -1.0312594498    3.9615420612
O       -6.8295217389    0.1917189824    0.5426126372
S       -0.3001877677    0.1875949435    2.6524054633
H       -4.9463072758    1.5352148082    1.6107935487
H       -3.7985324358   -2.4035658324    0.2657614350
H       -2.7143227534    1.8563950262    2.5682999322
H       -1.5638268417   -2.0562735476    1.1888407879
H        0.7749069410    2.2672363240    3.1022225992
H       -0.8193826554    2.0588736936    4.0545760668
H        1.7899815257    0.2969777676    1.5221177961
H        0.7951384584   -1.2131624784    1.0481126039
H       -6.2148437590   -2.7127948709   -0.1173968446
H       -5.4496555710   -1.7862945892   -1.4431388442
H       -7.1890936068   -1.6270029569   -1.1321140529
H        0.3675537769   -1.0341084351    4.5881808954
H       -1.3938603551   -0.7556708630    4.5643473591
H       -0.6678244264   -2.0199677220    3.5235888074
27   

C       -4.2221695543    0.7695377724    1.4980512714
C       -3.5737315108   -1.4015995069    0.6760367570
C       -2.9613108818    0.9394711361    2.0708924460
C       -2.3009253303   -1.2223574778    1.2361145043
C       -4.5521734655   -0.3994649591    0.7899398255
C       -1.9833866350   -0.0547701942    1.9505198690
C       -0.1275182472    1.6757983275    3.3911398008
C        0.8948110864   -0.2586020937    1.6326739514
C       -5.9256826855   -0.5466895307    0.2006526628
C       -6.2678760456   -1.8241180250   -0.5443273111
C       -0.5508314005   -1.0488985384    3.9303062640
O       -6.7691634391    0.3332910597    0.3185547046
S       -0.3169499797    0.2052306040    2.6564487191
H       -4.9572180081    1.5618967981    1.6034474986
H       -3.7665863632   -2.3246796940    0.1420827055
H       -2.7403098662    1.8621951585    2.5994060530
H       -1.5511717757   -1.9970266371    1.1084179623
H        0.7448925257    2.2763899391    3.1715006187
H       -0.8576679834    2.0369159480    4.1023410584
H        1.7835422096    0.3530003506    1.5498283139
H        0.8003349624   -1.1483690289    1.0266896139
H       -6.1708773699   -2.6853655265    0.1217809225
H       -5.6071016059   -1.9439008106   -1.4069094342
H       -7.3006188936   -1.7758220931   -0.9018778258
H        0.3377556006   -1.0659446801    4.5644376389
H       -1.4242772222   -0.7920291977    4.5325739143
H       -0.6852843937   -2.0258006612    3.4645543683
27   

C       -4.1911911145    0.7779254348    1.4568382647
C       -3.5194672300   -1.3742824164    0.6032284418
C       -2.9428072061    0.9388776348    2.0588620481
C       -2.2586036726   -1.2034487104    1.1921552115
C       -4.5042528527   -0.3794008216    0.7230724694
C       -1.9596518494   -0.0503940419    1.9379452701
C       -0.1440829876    1.6508975478    3.4619686548
C        0.9249767712   -0.2172728210    1.6606333264
C       -5.8567386907   -0.5116397673    0.0845874935
C       -6.2946459247   -1.8770409638   -0.4136132894
C       -0.5480388620   -1.0931784111    3.9092001994
O       -6.6435639508    0.4262905790    0.0574973532
S       -0.3073296807    0.2023513921    2.6788395697
H       -4.9292687260    1.5680098315    1.5580562557
H       -3.6992365164   -2.2806128150    0.0366160537
H       -2.7342734958    1.8521178531    2.6085365926
H       -1.5026704792   -1.9712596467    1.0596577939
H        0.7256936210    2.2662889848    3.2752891485
H       -0.8893243992    1.9828252272    4.1717414320
H        1.8089164771    0.4048376843    1.6115455461
H        0.8481259171   -1.0873743337    1.0243397427
H       -6.1083787516   -2.6363316259    0.3504472522
H       -5.7537661551   -2.1310384288   -1.3288964877
H       -7.3663266204   -1.8623072426   -0.6326221167
H        0.3301214602   -1.1200944318    4.5573559716
H       -1.4342058092   -0.8646116527    4.5042122175
H       -0.6632933407   -2.0565943104    3.4113581721
27   

C       -4.2158055091    0.7548820368    1.4525729082
C       -3.5019315319   -1.3574016490    0.5359401149
C       -2.9774971963    0.9122943795    2.0764437179
C       -2.2512606363   -1.1902769308    1.1468501225
C       -4.5035223185   -0.3835481669    0.6811245663
C       -1.9789024622   -0.0593442362    1.9358849898
C       -0.2058107964    1.6155291664    3.5379072230
C        0.9115897340   -0.1767292505    1.6893619920
C       -5.8368665386   -0.5055728006    0.0008454661
C       -6.3846560537   -1.8965271660   -0.2626681008
C       -0.5756230749   -1.1467800514    3.8886558731
O       -6.5557977141    0.4714092820   -0.1658012632
S       -0.3391741408    0.1920314164    2.7047575339
H       -4.9654476771    1.5326284307    1.5636743313
H       -3.6689211425   -2.2406496592   -0.0703487735
H       -2.7878396067    1.8104261279    2.6569776736
H       -1.4821854715   -1.9414862480    0.9961030647
H        0.6580522704    2.2480109091    3.3836294879
H       -0.9648466763    1.9140584456    4.2478654074
H        1.7877260697    0.4580185858    1.6730810029
H        0.8544730679   -1.0254085466    1.0227665852
H       -6.1614390903   -2.5567468440    0.5796103024
H       -5.9421027711   -2.3031315538   -1.1755522670
H       -7.4702182344   -1.8477995574   -0.3881469379
H        0.2954518844   -1.1831768483    4.5458466673
H       -1.4716024961   -0.9502042441    4.4803586450
H       -0.6716168687   -2.0945578113    3.3577949093
27   

C       -4.2040474914    0.7715006073    1.4036763101
C       -3.4455602006   -1.3090920752    0.4516645659
C       -2.9792928765    0.9299310241    2.0539056471
C       -2.2080276367   -1.1409141633    1.0882445303
C       -4.4628448900   -0.3540081309    0.6051976206
C       -1.9653773069   -0.0256507670    1.9091533931
C       -0.2484399966    1.6282049447    3.5923750524
C        0.9305638371   -0.0807648377    1.7040740656
C       -5.7763609643   -0.4697080041   -0.1167952431
C       -6.4578904304   -1.8245601312   -0.1369137747
C       -0.5686675350   -1.1500653492    3.8476775512
O       -6.3977227658    0.5277950852   -0.4593520684
S       -0.3422734300    0.2307896249    2.7110338162
H       -4.9653643191    1.5381233126    1.5120798196
H       -3.5972704990   -2.1759728702   -0.1820453848
H       -2.8108369622    1.8176122940    2.6566533085
H       -1.4259583311   -1.8773399277    0.9316325577
H        0.6060099604    2.2807530883    3.4731990841
H       -1.0243096218    1.8896421482    4.2987430425
H        1.7952739237    0.5693777572    1.7234352852
H        0.8984760256   -0.9063029403    1.0073875179
H       -6.3134681278   -2.3313046106    0.8209320327
H       -6.0414434575   -2.4380227435   -0.9396246375
H       -7.5306665071   -1.6975367873   -0.3084621303
H        0.2935763082   -1.1904360029    4.5161959710
H       -1.4767395577   -0.9904427000    4.4319719237
H       -0.6375959709   -2.0819307086    3.2853979833
27   

C       -4.1849217770    0.7088449212    1.3707684710
C       -3.3570585118   -1.3266086806    0.3753639737
C       -2.9762060001    0.8780275686    2.0482914339
C       -2.1359387412   -1.1468198635    1.0395761762
C       -4.3983977144   -0.4013977464    0.5408214817
C       -1.9367106812   -0.0496643242    1.8966752921
C       -0.2924455599    1.5935708625    3.6617103965
C        0.9641277655   -0.0292273784    1.7475432918
C       -5.6904743889   -0.5369377405   -0.2206793346
C       -6.4898002691   -1.8063875157   -0.0059985335
C       -0.5487235177   -1.1971483053    3.8279556624
O       -6.2126146083    0.4327314043   -0.7539467463
S       -0.3355702349    0.2220305196    2.7368285570
H       -4.9672621848    1.4536755261    1.4796756392
H       -3.4805917533   -2.1761693210   -0.2875270715
H       -2.8393379288    1.7528258119    2.6772984460
H       -1.3328808874   -1.8588189945    0.8763679413
H        0.5491907995    2.2682507517    3.5806540994
H       -1.0887341310    1.8160154885    4.3586164513
H        1.8134240855    0.6386988323    1.8053666177
H        0.9647328785   -0.8325830434    1.0246491262
H       -6.4254245723   -2.1164425659    1.0403315556
H       -6.0994352112   -2.6029996770   -0.6439244856
H       -7.5397487916   -1.6317912348   -0.2578419559
H        0.3016480565   -1.2364135842    4.5115781663
H       -1.4712421048   -1.0772052282    4.3989219682
H       -0.5837845203   -2.1132601504    3.2373500458
27   

C       -4.1889408363    0.6730677519    1.3286239896
C       -3.3027936965   -1.3228581968    0.3001728804
C       -2.9933395028    0.8519749744    2.0272173564
C       -2.0950323604   -1.1320479688    0.9850646407
C       -4.3627136529   -0.4216210022    0.4710180611
C       -1.9318119800   -0.0502517113    1.8694960138
C       -0.3537731580    1.5774706092    3.7079870418
C        0.9695443171    0.0524976508    1.7590761396
C       -5.6446736539   -0.5849912032   -0.3096826779
C       -6.5731713647   -1.6943565590    0.1375361557
C       -0.5342696888   -1.2223787240    3.7814029076
O       -6.0404235647    0.2880083685   -1.0693526666
S       -0.3486597349    0.2364192809    2.7384172578
H       -4.9893919559    1.3972414041    1.4424107363
H       -3.4031127528   -2.1596695968   -0.3827596086
H       -2.8833138407    1.7145089717    2.6780767172
H       -1.2748554535   -1.8231239333    0.8171857644
H        0.4711078750    2.2756781853    3.6610635275
H       -1.1648968468    1.7562518423    4.4003146570
H        1.8007623911    0.7390466929    1.8511435198
H        0.9992647151   -0.7246664392    1.0086251171
H       -6.5847170491   -1.7548673114    1.2289971692
H       -6.2338574902   -2.6486513961   -0.2725892457
H       -7.5887336376   -1.4950410028   -0.2162434507
H        0.3085277286   -1.2591458658    4.4744946363
H       -1.4667302170   -1.1471196402    4.3437356706
H       -0.5352459483   -2.1199334679    3.1619739813
27   

C       -4.2082840063    0.6010491793    1.2988788376
C       -3.2460152111   -1.3239299654    0.2012285185
C       -3.0242258435    0.7910924263    2.0146361640
C       -2.0513018794   -1.1209173348    0.9046740889
C       -4.3294766277   -0.4541858033    0.3850354507
C       -1.9309725976   -0.0676046208    1.8299001296
C       -0.4193096553    1.5464630103    3.7343598921
C        0.9679339060    0.1183148554    1.7565811543
C       -5.6149615507   -0.6744051349   -0.3797598735
C       -6.6451603233   -1.5605455924    0.2877461745
C       -0.5229355885   -1.2584709324    3.7212675547
O       -5.7670517895   -0.2656942694   -1.5219103323
S       -0.3656197123    0.2358943819    2.7250658462
H       -5.0360905485    1.2866397573    1.4466010083
H       -3.3206372879   -2.1403014743   -0.5096681126
H       -2.9488673060    1.6269104141    2.7041205645
H       -1.2093478991   -1.7811261224    0.7210924316
H        0.3858086696    2.2687249712    3.7170298632
H       -1.2414436091    1.6810179679    4.4236286239
H        1.7786378320    0.8243741973    1.8788343575
H        1.0279206739   -0.6351572610    0.9840345564
H       -7.1074298289   -1.0257061430    1.1212858167
H       -6.1688277838   -2.4697700856    0.6636976054
H       -7.4199647751   -1.8373905784   -0.4329053377
H        0.3139791070   -1.2948976216    4.4214692068
H       -1.4622938621   -1.2246984373    4.2760483472
H       -0.4948173687   -2.1362453890    3.0746501423
27   

C       -4.2110850822    0.5283490004    1.3014784350
C       -3.1639766785   -1.3300375306    0.1640888181
C       -3.0404302011    0.7458516040    2.0317301886
C       -1.9839234039   -1.0983261230    0.8826953900
C       -4.2782694235   -0.5000400064    0.3514471683
C       -1.9122036260   -0.0636371951    1.8338605320
C       -0.4840393444    1.5541665205    3.7977706759
C        0.9770681948    0.2409651079    1.7940224662
C       -5.5526347132   -0.7931453204   -0.4023735752
C       -6.6777805187   -1.4133370126    0.4002738803
C       -0.4731178989   -1.2516118562    3.7047191910
O       -5.5776754953   -0.8106249101   -1.6251079477
S       -0.3680866465    0.2759012257    2.7527314998
H       -5.0689360528    1.1707047744    1.4694408448
H       -3.2066925368   -2.1357180827   -0.5620521775
H       -3.0041452722    1.5628258750    2.7465048522
H       -1.1170826811   -1.7235768194    0.6927409794
H        0.2906374737    2.3091250217    3.8078730087
H       -1.3158774827    1.6345845967    4.4838195331
H        1.7570988821    0.9756915900    1.9436808746
H        1.0742464507   -0.4873559682    1.0013441830
H       -7.2248891452   -0.6326222132    0.9343378427
H       -6.2734838167   -2.1279037779    1.1220942999
H       -7.3666384851   -1.9375526892   -0.2682083593
H        0.3582027236   -1.2741314726    4.4121333622
H       -1.4180568726   -1.2721639384    4.2505857621
H       -0.4031742933   -2.1087311809    3.0339786331
27   

C       -4.2214525786    0.4386199265    1.3291676960
C       -3.1124549210   -1.3531654813    0.1398591527
C       -3.0550959701    0.6788570192    2.0595285536
C       -1.9386240969   -1.0973486944    0.8599541191
C       -4.2548099593   -0.5660383003    0.3514405747
C       -1.8994435373   -0.0843612483    1.8360983186
C       -0.5179397912    1.5384040199    3.8281500387
C        0.9770116252    0.3175428223    1.7912969497
C       -5.5109527480   -0.9022391278   -0.4071604098
C       -6.7359247782   -1.2563795636    0.4126320418
C       -0.4141406245   -1.2640353640    3.6755582059
O       -5.4753232295   -1.1661769510   -1.6015958863
S       -0.3635193251    0.2863375322    2.7566318896
H       -5.1000776978    1.0453008391    1.5200327007
H       -3.1297112652   -2.1437928703   -0.6040736383
H       -3.0440975410    1.4774848666    2.7955428850
H       -1.0515164824   -1.6874514190    0.6519821137
H        0.2296597067    2.3199756016    3.8490441021
H       -1.3472859309    1.5751446563    4.5208951799
H        1.7313549219    1.0764693335    1.9514134197
H        1.0960517451   -0.3920925268    0.9847511734
H       -7.2494008847   -0.3438505089    0.7251259192
H       -6.4423354461   -1.8273178450    1.2974832572
H       -7.4216175597   -1.8625060166   -0.1862823683
H        0.4212376948   -1.2751273599    4.3784454180
H       -1.3550231532   -1.3270578220    4.2251679831
H       -0.3203666318   -2.1037293182    2.9859087876
27   

C       -4.2961837579    0.3516100444    1.3414146909
C       -3.1272404915   -1.3842180745    0.1243676548
C       -3.1325854715    0.6314769477    2.0621752427
C       -1.9577011760   -1.0869047305    0.8350591367
C       -4.3010067146   -0.6484120983    0.3566431149
C       -1.9499276671   -0.0832522695    1.8211990141
C       -0.6203606154    1.5624700016    3.8290426205
C        0.9055638011    0.4437487120    1.7570580642
C       -5.5420513108   -1.0362612518   -0.3973081660
C       -6.8409699635   -1.1209980262    0.3814338932
C       -0.3964274285   -1.2300997916    3.6259188743
O       -5.4769463555   -1.5054223485   -1.5263031872
S       -0.4223244797    0.3368817463    2.7343125485
H       -5.1934938598    0.9241726050    1.5491461101
H       -3.1166221122   -2.1705060617   -0.6244901292
H       -3.1456389869    1.4230410164    2.8057709155
H       -1.0498417025   -1.6390311090    0.6128598880
H        0.0925756855    2.3755628840    3.8568840890
H       -1.4432161304    1.5503238369    4.5303694063
H        1.6276714088    1.2320939114    1.9234784298
H        1.0472226787   -0.2462083058    0.9371827019
H       -7.2846561378   -0.1265089676    0.4728108628
H       -6.6555443830   -1.5299566689    1.3782069907
H       -7.5443276155   -1.7758089228   -0.1409557113
H        0.4443735223   -1.2163524706    4.3222554383
H       -1.3290288545   -1.3447279896    4.1812934061
H       -0.2710830349   -2.0527545211    2.9209097858
27   

C       -4.2787088545    0.2830004331    1.3649704490
C       -3.0656867710   -1.3854433415    0.0992538722
C       -3.1222095236    0.5729463095    2.0928842500
C       -1.9038171564   -1.0768764133    0.8177254284
C       -4.2621715046   -0.6938405679    0.3547484390
C       -1.9217271494   -0.1029472994    1.8324540341
C       -0.6370774502    1.5197918275    3.8864718735
C        0.9174283881    0.5027856894    1.7836399863
C       -5.4874695608   -1.0830761863   -0.4210336051
C       -6.8421701634   -0.9075195046    0.2405136241
C       -0.3378427655   -1.2599977911    3.6038916714
O       -5.4039917266   -1.6947882290   -1.4787176824
S       -0.4056310437    0.3309788228    2.7581741863
H       -5.1855480139    0.8324829221    1.5917322608
H       -3.0296867528   -2.1498169815   -0.6712348945
H       -3.1552612597    1.3432664240    2.8578740250
H       -0.9816522102   -1.5975108756    0.5790378516
H        0.0515608054    2.3525817732    3.9355330564
H       -1.4572863528    1.4637793136    4.5887912537
H        1.6160637779    1.3075091393    1.9705809775
H        1.0787717458   -0.1611982035    0.9461523000
H       -7.1632226763    0.1339916480    0.1582890959
H       -6.7879521183   -1.1927812955    1.2944853030
H       -7.5804686436   -1.5446909935   -0.2549362638
H        0.5021866475   -1.2441119538    4.3011077162
H       -1.2671317996   -1.4156798770    4.1548420708
H       -0.1906221240   -2.0581858804    2.8753660576
27   

C       -4.2962961700    0.1855012847    1.4149316895
C       -3.0580998122   -1.4288913767    0.1066182327
C       -3.1352454253    0.5018314362    2.1242729480
C       -1.8925464366   -1.0932511169    0.8066045024
C       -4.2734160238   -0.7826666104    0.3939489345
C       -1.9203055478   -0.1332874564    1.8335236807
C       -0.6487515870    1.5038535292    3.8829606385
C        0.8951094880    0.5650869217    1.7364872004
C       -5.4960897906   -1.1869897160   -0.3779003455
C       -6.8562215643   -0.7616630620    0.1442899676
C       -0.2655903155   -1.2622477815    3.5577411593
O       -5.4240096109   -1.9285506616   -1.3501090510
S       -0.4007899847    0.3367479029    2.7356272477
H       -5.2095013832    0.7107407301    1.6702763164
H       -3.0095152435   -2.1816707599   -0.6745105278
H       -3.1768310969    1.2622718276    2.8986886452
H       -0.9596124260   -1.5817846499    0.5431927445
H        0.0112557537    2.3597670953    3.9273509812
H       -1.4508241824    1.4108188724    4.6021211018
H        1.5688634197    1.3919227964    1.9181941016
H        1.0624357579   -0.0842769662    0.8887798605
H       -6.9989632683    0.3098716175   -0.0178019690
H       -6.9398026031   -0.9891081585    1.2102680963
H       -7.6419546311   -1.3049499223   -0.3887374569
H        0.5870542426   -1.2286485103    4.2388150157
H       -1.1784593550   -1.4550385225    4.1242166143
H       -0.1074890321   -2.0456082059    2.8155240062
27   

C       -4.3245497805    0.0955209189    1.5115964467
C       -3.0507774419   -1.4597438246    0.1661995464
C       -3.1613644589    0.4574025148    2.1949865574
C       -1.8842513838   -1.0781736422    0.8406442061
C       -4.2860644653   -0.8679406952    0.4859563786
C       -1.9280762934   -0.1243609473    1.8725834960
C       -0.6794621273    1.5609066762    3.8959892668
C        0.8525855144    0.6891752844    1.7130507534
C       -5.5055591273   -1.3108677551   -0.2699716271
C       -6.8432210348   -0.6783921397    0.0675495393
C       -0.1909589443   -1.1878536607    3.5560883629
O       -5.4431345023   -2.1685687526   -1.1422995459
S       -0.4090799163    0.4057991090    2.7415531308
H       -5.2515262729    0.5799815638    1.7956676229
H       -2.9876163473   -2.2059582118   -0.6201594322
H       -3.2167814332    1.2116485914    2.9745689444
H       -0.9380251327   -1.5258107910    0.5530787394
H       -0.0562839810    2.4446171823    3.9254769773
H       -1.4590185418    1.4330002440    4.6343149329
H        1.4938777008    1.5445322434    1.8795870718
H        1.0288904754    0.0467065019    0.8619316488
H       -6.8021415515    0.4001161482   -0.1061361611
H       -7.0993656045   -0.8766872059    1.1115487685
H       -7.6236358065   -1.1043600694   -0.5697974713
H        0.6746343915   -1.1211126164    4.2181081672
H       -1.0824418120   -1.4184602024    4.1421820482
H       -0.0181996072   -1.9628259713    2.8083420582
