53

C      0.19837   -4.04570    1.14223
C     -0.76964   -4.99617    0.79281
C     -9.02324   -7.20091   -4.82292
C     -9.01780   -7.30215   -2.40598
C      0.40437   -2.93570    0.32410
C     -1.51614   -4.81458   -0.37003
C     -9.53501   -8.49742   -4.87993
C     -9.52829   -8.59790   -2.45156
C     -8.76416   -6.58495   -3.58802
C     -0.34091   -2.74329   -0.85106
C     -1.31192   -3.69903   -1.19794
C     -9.78877   -9.18557   -3.69222
C     -8.19546   -5.23566   -3.48875
C     -7.67633   -3.07840   -3.92374
C     -4.64349   -3.42369   -2.74865
C     -0.05944   -1.53874   -1.73016
C     -1.19283   -1.23468   -2.71453
C     -1.62382   -2.51566   -3.43000
C    -10.35310   -3.02248   -5.52495
C    -10.77267   -4.45735   -5.31727
C     -2.18406   -3.53765   -2.43170
C     -9.31048   -4.11180   -5.49583
C     -5.96710   -2.93883   -2.12555
N     -7.38021   -4.88531   -2.52791
N     -8.43700   -4.17723   -4.35940
N     -7.09881   -3.55371   -2.75837
N     -3.54137   -3.16611   -1.99229
O     -7.58611   -1.96442   -4.42312
O     -4.60264   -3.96645   -3.84808
Cl   -10.44301  -10.81253   -3.75826
H      0.78741   -4.17151    2.04723
H     -0.93639   -5.86790    1.42013
H     -8.80771   -6.68207   -5.74979
H     -8.81206   -6.83203   -1.44977
H      1.15658   -2.19815    0.59782
H     -2.27180   -5.54579   -0.65052
H     -9.72802   -8.97235   -5.83652
H     -9.72859   -9.14601   -1.53641
H      0.15224   -0.66750   -1.10023
H      0.86094   -1.73430   -2.29802
H     -2.05169   -0.80874   -2.18028
H     -0.86716   -0.48010   -3.43801
H     -2.38140   -2.32065   -4.19315
H     -0.75976   -2.96312   -3.93795
H    -10.54228   -2.55067   -6.48342
H    -10.38091   -2.35068   -4.67473
H    -11.09055   -4.75640   -4.32382
H    -11.25946   -4.99059   -6.12805
H     -2.28599   -4.50236   -2.93731
H     -8.83631   -4.36687   -6.44026
H     -6.00037   -3.14475   -1.05180
H     -6.05321   -1.85970   -2.28102
H     -3.65164   -2.77710   -1.06473
