41

C     -0.03226   -3.32430   -8.62905
C     -1.06460   -2.43209   -8.37811
C      0.84024   -3.73657   -7.60807
C     -0.42786   -2.32725   -6.02963
C     -1.27754   -1.95020   -7.08321
C      0.62871   -3.22132   -6.31916
C      1.90794   -4.72110   -8.05700
C     -2.10220   -1.46444   -0.24815
C     -1.64707   -0.11096   -0.87282
C     -2.13439   -2.48158   -1.41566
C     -1.51857   -0.36811   -2.38917
C     -1.20953   -1.87105   -2.48459
C     -5.38751   -1.25331   -6.49310
C     -1.42769   -2.46844   -3.85816
C     -4.08083   -2.01441   -6.70680
O      1.74820   -5.38440   -9.05841
O     -2.59011   -0.06391   -5.63872
O     -2.87610   -0.14963   -8.17415
O      3.05804   -4.81690   -7.35896
O     -0.52041   -1.81284   -4.77976
S     -2.70190   -0.83367   -6.88275
Cl     1.65064   -3.64963   -4.94915
H      0.12908   -3.72335   -9.62406
H     -1.70366   -2.08766   -9.18479
H     -1.39421   -1.78981    0.52049
H     -3.07925   -1.38786    0.23768
H     -2.34703    0.70163   -0.65784
H     -0.67939    0.18872   -0.45716
H     -1.83114   -3.48860   -1.11123
H     -3.15230   -2.55724   -1.82054
H     -2.46516   -0.16483   -2.90271
H     -0.75925    0.25048   -2.87266
H     -0.16335   -2.04459   -2.19917
H     -5.34420   -0.64914   -5.58378
H     -5.60094   -0.59704   -7.34015
H     -6.20871   -1.96941   -6.39552
H     -2.45787   -2.28967   -4.18551
H     -1.22727   -3.54742   -3.86723
H     -4.08965   -2.60840   -7.62427
H     -3.83720   -2.66463   -5.86312
H      3.03219   -4.27160   -6.55084
