18   

C        4.6331489340    1.3459722930    0.7538182958
C        5.8139907104    1.1162717400    0.0578439047
C        3.5008874128    0.5758692131    0.4819786556
C        5.8525191701    0.1176164314   -0.9129831843
C        3.5148812075   -0.4449182471   -0.4880718959
C        4.7243040751   -0.6614946593   -1.1988640899
C        2.2836726517   -1.2595635898   -0.7409971179
C        0.9255131898   -0.7892422010   -0.2311504079
O        2.3102354744   -2.3131859061   -1.3628699842
O        4.8394502485   -1.6001087053   -2.1827804583
H        4.5933087484    2.1217186588    1.5103739084
H        6.6964253802    1.7112888200    0.2677202273
H        2.6063407890    0.7855760439    1.0569106847
H        6.7762154382   -0.0470308016   -1.4536462995
H        0.7670970384    0.2586430445   -0.4992965663
H        0.8758647255   -0.9036686468    0.8547636298
H        0.1296915227   -1.3874176271   -0.6844092306
H        5.7506973875   -1.6457513495   -2.5119243867
18   

C        4.6560720128    1.3455002989    0.7980864717
C        5.8087066552    1.1619622369    0.0407734812
C        3.5350944513    0.5453601376    0.5677991315
C        5.8294911327    0.1814569032   -0.9507643907
C        3.5390812337   -0.4554416673   -0.4197620245
C        4.7108291764   -0.6248424703   -1.1941939570
C        2.3294741382   -1.3189268933   -0.6179731070
C        0.9406437023   -0.7750284616   -0.3057243863
O        2.4123600260   -2.4711546229   -1.0185709282
O        4.7846255444   -1.5399450342   -2.2039744367
H        4.6309738292    2.1060786969    1.5704842786
H        6.6827894650    1.7791407079    0.2191879654
H        2.6587921057    0.7057303563    1.1858787775
H        6.7286194358    0.0543170961   -1.5406949996
H        0.8585712659    0.2596014740   -0.6492619134
H        0.7583988377   -0.8184454776    0.7710674205
H        0.1829331950   -1.3739964486   -0.8189731984
H        5.6888866889   -1.5978303348   -2.5507690996
18   

C        4.7236058710    1.2900806644    0.8579609106
C        5.8289614628    1.1404001000    0.0240818657
C        3.5968832321    0.4855203685    0.6732469358
C        5.7968164899    0.1891055290   -0.9967348469
C        3.5526894013   -0.4797736068   -0.3443829146
C        4.6707240096   -0.6193332123   -1.1921515878
C        2.3474367075   -1.3659700565   -0.4960315700
C        0.9502040525   -0.7750502977   -0.3656898395
O        2.4567350047   -2.5681761037   -0.6810882383
O        4.6741181649   -1.5111447759   -2.2252947993
H        4.7408016770    2.0260546466    1.6540197482
H        6.7074982882    1.7604685798    0.1669972019
H        2.7546132461    0.6093641816    1.3450198007
H        6.6581161173    0.0867103860   -1.6450196716
H        0.8937600366    0.1644803301   -0.9218805778
H        0.7197857597   -0.5888424344    0.6860964002
H        0.2119788384   -1.4706903718   -0.7747293963
H        5.5609874690   -1.5831981247   -2.6129038356
18   

C        4.7769615732    1.2316690744    0.9525417945
C        5.8308165676    1.1371718175    0.0451624864
C        3.6523811039    0.4162228940    0.8024124374
C        5.7505626798    0.2283880275   -1.0123180519
C        3.5638512259   -0.4991184923   -0.2538192506
C        4.6258028349   -0.5893715227   -1.1706775800
C        2.3643005783   -1.4049516050   -0.3769963154
C        0.9631906594   -0.8087623357   -0.4041813047
O        2.4840695210   -2.6188476484   -0.3551165292
O        4.5692325045   -1.4487951723   -2.2294477176
H        4.8335867932    1.9317161219    1.7785918263
H        6.7073850887    1.7655607023    0.1612312220
H        2.8511565567    0.4895705947    1.5296132490
H        6.5719453384    0.1659715401   -1.7151802891
H        0.7939807117   -0.3288136213   -1.3717161652
H        0.8460017664   -0.0657391186    0.3877123587
H        0.2178471671   -1.5966132394   -0.2633209693
H        5.4326238269   -1.5044312058   -2.6700833870
18   

C        4.8386257065    1.1837746075    1.0318077381
C        5.8391248174    1.1234479829    0.0622276170
C        3.7104653072    0.3667376636    0.9204153735
C        5.7020285689    0.2466483116   -1.0169377413
C        3.5680907327   -0.5143591444   -0.1557819405
C        4.5729332558   -0.5718901894   -1.1338144090
C        2.3581691156   -1.4159331338   -0.2556184048
C        0.9906649486   -0.8060595994   -0.5242999270
O        2.4380934431   -2.6069932263   -0.0090216900
O        4.4535331026   -1.4055748049   -2.2079335677
H        4.9388034985    1.8590087103    1.8741959558
H        6.7180228453    1.7535686549    0.1470483126
H        2.9441390747    0.4108631761    1.6870672302
H        6.4818007419    0.2098619659   -1.7673925768
H        0.9020947734   -0.5743587286   -1.5889999862
H        0.8687356582    0.1144999050    0.0517288824
H        0.2026521583   -1.5106232963   -0.2442696849
H        5.2844428508   -1.4338337631   -2.7101018805
18   

C        4.9142367396    1.1369592985    1.1193396332
C        5.8512058022    1.1056343422    0.0868139955
C        3.7790521339    0.3245279131    1.0545416343
C        5.6429454738    0.2631489390   -1.0082884674
C        3.5701342767   -0.5278990587   -0.0328433599
C        4.5065763012   -0.5506182699   -1.0771576358
C        2.3326806703   -1.3957109205   -0.1114142168
C        1.0784384781   -0.8460171457   -0.7723217387
O        2.3184521221   -2.5209620057    0.3569035494
O        4.3134660077   -1.3497972638   -2.1669313184
H        5.0674404661    1.7880053973    1.9727148227
H        6.7346539750    1.7333021850    0.1344141048
H        3.0568449939    0.3492429990    1.8638800085
H        6.3723000090    0.2506648552   -1.8085870446
H        1.2779996115   -0.6567869512   -1.8303912727
H        0.7866793075    0.0903339829   -0.2900634695
H        0.2598378387   -1.5659175599   -0.6856026489
H        5.1000017800   -1.3407320991   -2.7372605928
18   

C        4.9701237038    1.0775134140    1.1664757509
C        5.8557072729    1.0796482498    0.0891757324
C        3.8243295764    0.2788919426    1.1243309099
C        5.5867961998    0.2831552626   -1.0270884386
C        3.5543983572   -0.5279086104    0.0145702431
C        4.4399971348   -0.5176555751   -1.0743652539
C        2.2910481144   -1.3567723676   -0.0306313630
C        1.1372969426   -0.9255123729   -0.9244365180
O        2.1822206524   -2.3746476185    0.6332516641
O        4.1962938041   -1.2792287084   -2.1808200665
H        5.1704861507    1.6926066782    2.0365915679
H        6.7469362658    1.6973333272    0.1191521171
H        3.1399477899    0.2782805112    1.9664977432
H        6.2787044884    0.2955176728   -1.8599786343
H        1.4640938264   -0.9008001724   -1.9669946488
H        0.8001097484    0.0722173630   -0.6322959619
H        0.3044950734   -1.6277963185   -0.8292814373
H        4.9509529898   -1.2383923373   -2.7917704246
18   

C        5.0275439187    1.0331201243    1.1988496275
C        5.8693797811    1.0699346457    0.0873066728
C        3.8679040532    0.2546136141    1.1683375815
C        5.5444626972    0.3277477558   -1.0519107324
C        3.5428392847   -0.4978245275    0.0325380724
C        4.3838305121   -0.4537562963   -1.0906133905
C        2.2553888184   -1.2841796603    0.0325155930
C        1.1591129150   -0.9687910919   -0.9756944707
O        2.0621335897   -2.1526924064    0.8700791312
O        4.0927669694   -1.1675914881   -2.2168891485
H        5.2720953390    1.6059341961    2.0863599447
H        6.7711740419    1.6724441285    0.1090976245
H        3.2161623921    0.2267323159    2.0359150108
H        6.2053686294    0.3665628544   -1.9088113523
H        1.4157838594   -1.3922632174   -1.9496846678
H        1.0486530989    0.1141997038   -1.0734575652
H        0.2091334707   -1.3948459589   -0.6416948995
H        4.8195657403   -1.0957421231   -2.8582404129
18   

C        5.0238361932    0.8999920603    1.2659797316
C        5.8416194562    0.9702153580    0.1386765863
C        3.8345499052    0.1689903836    1.2190311664
C        5.4646540112    0.3073212462   -1.0328081608
C        3.4536816969   -0.5034781805    0.0479737210
C        4.2747116033   -0.4279479473   -1.0907943534
C        2.1348636819   -1.2265628262    0.0548249545
C        1.1353179349   -1.0626733814   -1.0823055150
O        1.8274942007   -1.9241431991    1.0129604984
O        3.9434473337   -1.0671396350   -2.2503999393
H        5.3089641455    1.4111590209    2.1786758879
H        6.7657756267    1.5371828703    0.1735389822
H        3.2018534754    0.1189402777    2.0999340523
H        6.1098014237    0.3710747277   -1.9001600920
H        1.3051682384   -1.8365740362   -1.8352861459
H        1.2542596328   -0.0793808459   -1.5448700534
H        0.1156782257   -1.1523487600   -0.6980622331
H        4.6519626338   -0.9606615871   -2.9073073526
18   

C        5.0770859674    0.8538706948    1.2798328216
C        5.8709491690    0.9418142329    0.1379459120
C        3.8596999682    0.1714424311    1.2314795050
C        5.4437162547    0.3423579264   -1.0495379384
C        3.4201689122   -0.4326382186    0.0407205300
C        4.2257620563   -0.3456372683   -1.1122392062
C        2.0824425880   -1.1168180306    0.0737127527
C        1.1450247074   -1.1282065909   -1.1274519226
O        1.6868705618   -1.6163858788    1.1214236485
O        3.8643381544   -0.9313096077   -2.2907165504
H        5.4021336247    1.3140636310    2.2062138916
H        6.8168008768    1.4716838792    0.1745174825
H        3.2517158958    0.1132798232    2.1292577530
H        6.0745883709    0.4160721129   -1.9265513300
H        1.3817876613   -1.9792812232   -1.7712182598
H        1.2539718615   -0.2015531997   -1.6969045242
H        0.1083068244   -1.2131496657   -0.7905180351
H        4.5637841390   -0.8096123099   -2.9547052122
18   

C        5.0830098215    0.7998025651    1.3193374631
C        5.8609611666    0.8893163879    0.1682669675
C        3.8307047940    0.1846207058    1.2692036549
C        5.3831669357    0.3571648840   -1.0306945127
C        3.3329246644   -0.3496816010    0.0655402595
C        4.1299666353   -0.2644106456   -1.0982630761
C        1.9669680649   -0.9783938683    0.1183463243
C        1.1066664330   -1.2078727991   -1.1190034270
O        1.4736853313   -1.2520117208    1.2086311714
O        3.7350380611   -0.7845957231   -2.2960989832
H        5.4471614679    1.2072293837    2.2558396148
H        6.8338619943    1.3675768757    0.2066520569
H        3.2452422490    0.1312731254    2.1820301235
H        6.0042438151    0.4300995440   -1.9147457260
H        1.4613433342   -2.0904135959   -1.6576421442
H        1.1513421533   -0.3346739315   -1.7748359828
H        0.0656042333   -1.3687659752   -0.8255543071
H        4.4289762783   -0.6537209195   -2.9640896303
18   

C        5.1368197639    0.7417162869    1.3248051854
C        5.9095594537    0.8403127740    0.1720257156
C        3.8570325086    0.1876727448    1.2623507863
C        5.3966425091    0.3825851844   -1.0421945114
C        3.3234184494   -0.2794076574    0.0452144916
C        4.1148238389   -0.1761445825   -1.1239601863
C        1.9337491216   -0.8573044862    0.0966843421
C        1.2005330055   -1.4089624554   -1.1209809687
O        1.3396025054   -0.8958518344    1.1707119722
O        3.6851390599   -0.6003469424   -2.3470148811
H        5.5263533608    1.0945459949    2.2731866254
H        6.9041073044    1.2707883786    0.2201115351
H        3.2829163672    0.1269120906    2.1818019826
H        6.0121750784    0.4673544937   -1.9290721629
H        1.7624867475   -2.2430101451   -1.5489830456
H        1.0763611227   -0.6226346524   -1.8699042193
H        0.2104202857   -1.7704836680   -0.8294344974
H        4.3713632968   -0.4426379138   -3.0171390127
18   

C        5.1399417009    0.6652486735    1.3459473875
C        5.9096647380    0.7742044956    0.1910281689
C        3.8354123420    0.1734434769    1.2713793555
C        5.3676157152    0.3938529897   -1.0379942595
C        3.2784060294   -0.2209447857    0.0400085805
C        4.0604104710   -0.1001399733   -1.1308297803
C        1.8700857630   -0.7495810726    0.0729884152
C        1.2736311283   -1.6023571662   -1.0409366688
O        1.1817370469   -0.5623994570    1.0720154821
O        3.5850170323   -0.4302229086   -2.3663127604
H        5.5512228089    0.9613322960    2.3044992384
H        6.9234472093    1.1558850722    0.2485399687
H        3.2594732130    0.0975902576    2.1886606307
H        5.9783431920    0.4912402498   -1.9268869257
H        2.0021430929   -2.3446659536   -1.3768481161
H        0.9848882934   -0.9648488530   -1.8805891987
H        0.3865909711   -2.1271240994   -0.6754384568
H        4.2577060681   -0.2491429645   -3.0442430552
18   

C        4.6333768263    1.9329423918    0.1016785928
C        5.7639059428    1.1271494359   -0.0185699303
C        3.3673870202    1.3994544985   -0.1487914753
C        5.6227471537   -0.2114805819   -0.3929189312
C        3.2150583195    0.0531707736   -0.5233993714
C        4.3596343117   -0.7594388297   -0.6478090118
C        1.8128965991   -0.4423375250   -0.7404684171
C        1.3901683094   -1.8645637006   -0.3936948727
O        0.9522594038    0.3377799710   -1.1334834336
O        4.2780505403   -2.0667810311   -1.0307561918
H        4.7339947102    2.9734951820    0.3893265011
H        6.7477676310    1.5406581515    0.1757531799
H        2.4961276660    2.0397654367   -0.0490805389
H        6.5116931841   -0.8227483164   -0.4862603755
H        1.9515963681   -2.2216955877    0.4735349245
H        1.5804913589   -2.5231805136   -1.2450589610
H        0.3233530312   -1.8887810209   -0.1552783302
H        5.1679976605   -2.4495710174   -1.1106421820
18   

C        4.6038665419    1.9101860255    0.1632563466
C        5.7455799221    1.1228543940    0.0179764140
C        3.3485204632    1.3794519201   -0.1423504704
C        5.6254973004   -0.1946665694   -0.4332679444
C        3.2220406354    0.0596335647   -0.6014095864
C        4.3721697927   -0.7365977791   -0.7421822974
C        1.8346911296   -0.4603524828   -0.8603795496
C        1.3845613468   -1.8153209463   -0.3307931918
O        1.0270533710    0.2333182828   -1.4650992017
O        4.2955816968   -2.0249552202   -1.1863187374
H        4.6882542402    2.9331521978    0.5125740566
H        6.7213270350    1.5335921104    0.2545019998
H        2.4634031264    1.9974366548   -0.0263277030
H        6.5209616515   -0.7939294056   -0.5410026914
H        1.9340128239   -2.0605325896    0.5818688070
H        1.5752747304   -2.5855254060   -1.0825676016
H        0.3151880376   -1.7905125637   -0.1045748292
H        5.1867920111   -2.4005922644   -1.2837862389
18   

C        4.5677682003    1.8358735535    0.2279250252
C        5.7211097808    1.0771152985    0.0291872031
C        3.3209929032    1.3122003974   -0.1228594898
C        5.6201360133   -0.2049570309   -0.5187120032
C        3.2153089642    0.0315659743   -0.6802449048
C        4.3744688231   -0.7369887716   -0.8717093496
C        1.8424448056   -0.5069535345   -0.9982155475
C        1.3227359101   -1.7549966715   -0.2980265411
O        1.1161397421    0.0785887642   -1.7873617398
O        4.3077430227   -1.9915239737   -1.4050439560
H        4.6371519677    2.8311649307    0.6523985405
H        6.6905323635    1.4820474765    0.2993330155
H        2.4257928384    1.9064027630    0.0313099233
H        6.5229384703   -0.7844249111   -0.6661801523
H        1.5658828699   -1.7084860758    0.7665509924
H        1.7834348625   -2.6454578322   -0.7323369998
H        0.2375703251   -1.8244700645   -0.4126319906
H        5.2019927466   -2.3428404968   -1.5520981907
18   

C        4.6407452477    1.8267864176    0.3526210650
C        5.8060269461    1.0973516125    0.1184314128
C        3.4030623344    1.3038490689   -0.0309010369
C        5.7247281247   -0.1547730168   -0.4966321569
C        3.3155562498    0.0559228380   -0.6556509592
C        4.4872822363   -0.6831423270   -0.8816550208
C        1.9654372511   -0.5117718287   -1.0299057302
C        1.3704527547   -1.6467046055   -0.2089594653
O        1.3447822698   -0.0803508760   -1.9876716388
O        4.4351908258   -1.9127836305   -1.4723310963
H        4.6941747945    2.7990209288    0.8295825666
H        6.7687041267    1.5009334544    0.4135539033
H        2.4994924057    1.8767642081    0.1506254526
H        6.6351819772   -0.7148091569   -0.6699236639
H        1.2538532844   -1.3262846648    0.8294246163
H        2.0321263646   -2.5158534624   -0.2421396706
H        0.3926789598   -1.9285690123   -0.6093677876
H        5.3327484857   -2.2407706924   -1.6491172648
18   

C        4.6248892687    1.7745558588    0.4295401945
C        5.8108742136    1.0983047800    0.1447064427
C        3.4005361016    1.2315423130    0.0308123680
C        5.7631400219   -0.1218562325   -0.5345104724
C        3.3466797739    0.0168816565   -0.6579505931
C        4.5387635925   -0.6692658510   -0.9339328874
C        2.0198763456   -0.5797356977   -1.0753633099
C        1.2887906185   -1.5108247292   -0.1210728188
O        1.5206570610   -0.3175839679   -2.1559872953
O        4.5151575098   -1.8730340337   -1.5773386768
H        4.6524069356    2.7216788530    0.9565907627
H        6.7633749349    1.5175500735    0.4507927669
H        2.4818685333    1.7654947128    0.2502824052
H        6.6885635827   -0.6432197002   -0.7451353512
H        1.1277893816   -1.0074186968    0.8355405682
H        1.8905385778   -2.4085650387    0.0435629765
H        0.3221837220   -1.8001815305   -0.5427708770
H        5.4178808009   -2.1576901182   -1.7965586758
18   

C        4.6013855985    1.6757169959    0.5019553998
C        5.8138783884    1.0740236906    0.1664644183
C        3.3982152900    1.0905254321    0.0986739630
C        5.8143188471   -0.1140582950   -0.5688150912
C        3.3916856427   -0.0971020480   -0.6391016682
C        4.6117914138   -0.7049139435   -0.9729663736
C        2.0871838922   -0.7101778706   -1.0964170613
C        1.1356212281   -1.2997717012   -0.0663161438
O        1.7301550443   -0.6361832941   -2.2595425139
O        4.6386701890   -1.8760921404   -1.6734218650
H        4.5922985971    2.5995605380    1.0694278822
H        6.7500530206    1.5271053372    0.4746889617
H        2.4605692370    1.5735497614    0.3525743359
H        6.7604453552   -0.5765526499   -0.8208541719
H        1.0916667223   -0.6580178227    0.8170439349
H        1.4931208913   -2.2895004614    0.2299052007
H        0.1322833258   -1.3936072629   -0.4909326641
H        5.5465804385   -2.0886074884   -1.9453015916
18   

C        4.5873769375    1.5891786791    0.5710030579
C        5.8160857265    1.0573664267    0.1832784165
C        3.4013773660    0.9691332496    0.1695989583
C        5.8506140536   -0.0972989347   -0.6016723729
C        3.4262035409   -0.1879580558   -0.6189376908
C        4.6666469863   -0.7254585588   -1.0048188795
C        2.1378869441   -0.8202344679   -1.0829247623
C        1.0683739870   -1.1964379850   -0.0661122564
O        1.8879807669   -0.9476320896   -2.2702253857
O        4.7369425884   -1.8663152635   -1.7506789333
H        4.5521594702    2.4877255673    1.1768116985
H        6.7387814592    1.5386785252    0.4893628885
H        2.4546726568    1.4086709919    0.4640783595
H        6.8099936947   -0.5059996196   -0.8934520984
H        0.9027597748   -0.3783771753    0.6383452728
H        1.3913752173   -2.0829375865    0.4860610564
H        0.1274386904   -1.4194572340   -0.5769826418
H        5.6446561440   -2.0152495094   -2.0614425746
18   

C        4.5896341962    1.4929909663    0.6481591442
C        5.8229804815    1.0375990118    0.1887727601
C        3.4169433033    0.8414435645    0.2592721180
C        5.8756164245   -0.0743789964   -0.6531173990
C        3.4536729761   -0.2734179294   -0.5920953886
C        4.7060734429   -0.7363168789   -1.0453526203
C        2.1758319672   -0.9312762710   -1.0345160578
C        1.0531050719   -1.1592910740   -0.0315611526
O        1.9925979962   -1.2542376615   -2.1979606306
O        4.8118148605   -1.8395188461   -1.8419021652
H        4.5398555670    2.3567566255    1.3016831335
H        6.7356601084    1.5434715808    0.4851599181
H        2.4673310076    1.2240328801    0.6168935857
H        6.8402145096   -0.4256926703   -0.9976816646
H        0.5363878020   -0.2181184325    0.1714443032
H        1.4657306016   -1.5555585889    0.9000846584
H        0.3356778083   -1.8805305545   -0.4332035855
H        5.7172439551   -1.9336581081   -2.1785107382
18   

C        4.5826632204    1.4237068691    0.7108281649
C        5.8176382535    1.0461817928    0.1930187671
C        3.4274337081    0.7374722381    0.3308361422
C        5.8899833894   -0.0242299159   -0.6980374439
C        3.4775569990   -0.3374059328   -0.5740333023
C        4.7395327235   -0.7229813726   -1.0840153786
C        2.2133872515   -1.0303569648   -0.9864765866
C        1.0264262003   -1.0897589501   -0.0326453415
O        2.0871653499   -1.5527736810   -2.0846796626
O        4.8844434322   -1.7840945103   -1.9299148089
H        4.5174260496    2.2542804663    1.4048018521
H        6.7168346567    1.5792298601    0.4829621763
H        2.4800889398    1.0673826440    0.7423461798
H        6.8577378652   -0.3155376998   -1.0868879686
H        0.4810624879   -0.1429477945   -0.0592289076
H        1.3745465783   -1.2829994842    0.9855319954
H        0.3512051553   -1.8974033637   -0.3294579837
H        5.7934630526   -1.8355862910   -2.2650853730
18   

C        4.6207900441    1.3814590622    0.7150208509
C        5.8377374085    1.0479810305    0.1324740862
C        3.4647988220    0.6795402156    0.3686603171
C        5.8910279106    0.0068742439   -0.7919491383
C        3.4892121383   -0.3712249734   -0.5686232400
C        4.7405654625   -0.7083133157   -1.1476939629
C        2.2250232610   -1.0910941863   -0.9251415909
C        0.9827395880   -0.9537663276   -0.0512910380
O        2.1364666913   -1.8138890230   -1.9086446949
O        4.8848073480   -1.7305616542   -2.0401899992
H        4.5697222887    2.1894924153    1.4362838007
H        6.7377644860    1.5924496122    0.3975958654
H        2.5379597887    0.9820619070    0.8421447652
H        6.8462522530   -0.2483905919   -1.2335671128
H        0.5472086390    0.0407829316   -0.1775931345
H        1.2438555886   -1.1115399080    0.9984648707
H        0.2392607538   -1.7023746661   -0.3401063222
H        5.7951709610   -1.7736717849   -2.3721084554
18   

C        4.6296201144    1.3631536713    0.7326776877
C        5.8322206788    1.0850063409    0.0954469521
C        3.4864214599    0.6250096212    0.4213919426
C        5.8829988063    0.0661348106   -0.8527034305
C        3.5073892624   -0.4113221858   -0.5332159435
C        4.7452474118   -0.6839005031   -1.1766033105
C        2.2589105601   -1.1798849009   -0.8387197265
C        0.9501179657   -0.8554548628   -0.1252595150
O        2.2285397163   -2.0876898648   -1.6594186106
O        4.8890443351   -1.6621162652   -2.1171690377
H        4.5801025477    2.1545147946    1.4723126625
H        6.7226535258    1.6565268503    0.3347956797
H        2.5753353077    0.8835827973    0.9479434214
H        6.8262915461   -0.1410745024   -1.3425141517
H        0.6576814951    0.1772124857   -0.3326086633
H        1.0667093596   -0.9982211818    0.9522097163
H        0.1566413267   -1.5196080665   -0.4802676769
H        5.8023436913   -1.6989124131   -2.4413937471
