22   
Generated by ForceBalance from scan.xyz: Frame 1 of 24
C        7.7579201960   -2.1332345787    1.1196272937
C        8.5165015057   -2.8560078567    2.0415765502
C        6.8043442898   -2.4498134225    3.7155918416
C        6.5253316789   -1.5547234389    1.4548908376
C        6.0602910424   -1.7309371891    2.7728207084
C        8.0193964685   -2.9997002089    3.3309598937
C        4.3459630630   -1.4230407111   -1.6382867685
C        4.8907308081   -1.7560231053   -0.4644744118
C        5.7516050800   -0.8237859758    0.3739901720
C        4.7428356158   -1.1355254483    3.2126823148
F        8.7394642920   -3.6957478894    4.2447936600
F        4.4175094550   -1.4836238310    4.4792565685
F        4.7601521393    0.2250870986    3.1756539480
F        3.7137898617   -1.5322776715    2.4198427211
H        8.1312876589   -2.0140451008    0.1058082268
H        9.4714498801   -3.2984155929    1.7750493150
H        6.4508649548   -2.5837179475    4.7313050712
H        3.7052217187   -2.1146989107   -2.1788481809
H        4.5227656814   -0.4526886451   -2.1003137579
H        4.6752669732   -2.7324211984   -0.0333777758
H        5.1158647653   -0.0511485555    0.8128202695
H        6.4612112171   -0.3002722281   -0.2746237597
22   
Generated by ForceBalance from scan.xyz: Frame 2 of 24
C        7.7051611115   -2.1220909525    1.0774092298
C        8.5037673692   -2.8468671813    1.9623197636
C        6.8636481243   -2.4502908883    3.7113165254
C        6.4880716807   -1.5449547309    1.4683583499
C        6.0796439449   -1.7281040601    2.8034814514
C        8.0618002311   -2.9950965119    3.2715365764
C        4.5225057602   -1.5080260875   -1.7131091101
C        4.8521540376   -1.7464870023   -0.4399730246
C        5.6732802693   -0.8066162406    0.4209922658
C        4.7785023625   -1.1427840263    3.3008313759
F        8.8218203678   -3.6935341885    4.1504328442
F        4.5088354620   -1.4968334966    4.5784297465
F        4.7825474762    0.2176018846    3.2663690836
F        3.7188841322   -1.5463745181    2.5503823842
H        8.0315129549   -2.0006947535    0.0477699349
H        9.4464930832   -3.2880486609    1.6534396884
H        6.5536097706   -2.5903289187    4.7403304919
H        3.8859100256   -2.1910284384   -2.2695318305
H        4.8819691398   -0.6275850780   -2.2438135213
H        4.4608704936   -2.6318080716    0.0594007003
H        4.9997657921   -0.0890097463    0.8959361270
H        6.3466088201   -0.2210992472   -0.2127462517
22   
Generated by ForceBalance from scan.xyz: Frame 3 of 24
C        7.6505069754   -2.0933759722    1.0436962839
C        8.4713292742   -2.8280882295    1.8992430823
C        6.8808186955   -2.4468642079    3.6955589097
C        6.4464019501   -1.5172056945    1.4739954873
C        6.0735354167   -1.7132856118    2.8174228629
C        8.0656988950   -2.9892116403    3.2188119413
C        4.6764599869   -1.5944413743   -1.7387282621
C        4.7926980542   -1.6981253999   -0.4110530147
C        5.6076376034   -0.7630887389    0.4547595105
C        4.7886053675   -1.1296004069    3.3565956195
F        8.8482461919   -3.6976344054    4.0696338029
F        4.5532265806   -1.4955698483    4.6373849592
F        4.7947441805    0.2308463964    3.3348637489
F        3.7064452818   -1.5232145575    2.6320033273
H        7.9469643982   -1.9645267703    0.0059990415
H        9.4040587606   -3.2682943459    1.5601309452
H        6.5985238431   -2.5971892170    4.7310434302
H        4.0465992361   -2.2738635252   -2.3073001984
H        5.2076889024   -0.8285025304   -2.3016241189
H        4.2403084669   -2.4727103239    0.1194369370
H        4.9328611450   -0.0624918137    0.9528003021
H        6.2675973281   -0.1617455748   -0.1781644236
22   
Generated by ForceBalance from scan.xyz: Frame 4 of 24
C        7.6062799175   -2.0648963593    1.0111344039
C        8.4419774347   -2.8148164598    1.8382657943
C        6.8838117259   -2.4693195958    3.6694796119
C        6.4103813850   -1.4976170595    1.4739239267
C        6.0612318874   -1.7194300236    2.8196473430
C        8.0601055259   -3.0017546592    3.1616728482
C        4.8234199064   -1.7023438349   -1.7204768627
C        4.7363478528   -1.6475256116   -0.3875267631
C        5.5538862856   -0.7220743040    0.4835594502
C        4.7874780459   -1.1439650594    3.3925733477
F        8.8579479801   -3.7260589945    3.9845295627
F        4.5733076677   -1.5350836749    4.6694496405
F        4.7967298273    0.2166122601    3.3979771604
F        3.6909955518   -1.5201636563    2.6795379796
H        7.8832786289   -1.9182932585   -0.0295129845
H        9.3685624088   -3.2481220023    1.4743392989
H        6.6198488401   -2.6395331668    4.7067233337
H        4.2086717893   -2.3854269064   -2.3011711540
H        5.5058119310   -1.0609098614   -2.2760125765
H        4.0434643174   -2.3040845168    0.1373611780
H        4.8894262598   -0.0279074191    1.0028289550
H        6.2094963129   -0.1159068290   -0.1495657141
22   
Generated by ForceBalance from scan.xyz: Frame 5 of 24
C        7.5719389920   -2.0210065936    0.9812432113
C        8.4147792186   -2.7887293831    1.7840648401
C        6.8802470626   -2.4746360731    3.6403050467
C        6.3835730982   -1.4596156209    1.4695089236
C        6.0502011452   -1.7055978818    2.8150843662
C        8.0484131273   -3.0006874521    3.1082196899
C        4.9412156645   -1.8121282394   -1.6619174479
C        4.6854437507   -1.5681910888   -0.3724310842
C        5.5157466418   -0.6600304704    0.5063427055
C        4.7859925772   -1.1365760710    3.4147615753
F        8.8539730142   -3.7434271657    3.9068372455
F        4.5849174671   -1.5528115277    4.6856935963
F        4.8013906913    0.2236723915    3.4479775922
F        3.6788685348   -1.4927611938    2.7074621313
H        7.8376267090   -1.8561139555   -0.0594947245
H        9.3357220176   -3.2173284253    1.4007746311
H        6.6279768718   -2.6642536280    4.6770953961
H        4.3292132086   -2.4978920581   -2.2423097855
H        5.7613614211   -1.3227888587   -2.1852101161
H        3.8617606416   -2.0826801197    0.1207764639
H        4.8663760558    0.0331945853    1.0438710711
H        6.1731416678   -0.0532423025   -0.1243662313
22   
Generated by ForceBalance from scan.xyz: Frame 6 of 24
C        7.5771299432   -1.9441362152    0.9568191421
C        8.4137809580   -2.7343337869    1.7444020502
C        6.8637822230   -2.4744734782    3.5954866652
C        6.3819430055   -1.4011908764    1.4488852131
C        6.0400313898   -1.6829932819    2.7856693959
C        8.0358491106   -2.9863089351    3.0580138209
C        4.9855387997   -1.9430559163   -1.5552182406
C        4.6320424253   -1.4614053663   -0.3592186617
C        5.5134164638   -0.5804709521    0.5040968889
C        4.7758407927   -1.1236748363    3.3945465217
F        8.8347425738   -3.7522211137    3.8413241963
F        4.5660134972   -1.5729316310    4.6528897553
F        4.8003973678    0.2353552967    3.4651355955
F        3.6693678709   -1.4517368421    2.6734737646
H        7.8569162479   -1.7451830467   -0.0739977992
H        9.3396503683   -3.1485476340    1.3571889410
H        6.6041304734   -2.6917896336    4.6249776477
H        4.3335467608   -2.6102954337   -2.1130639390
H        5.9295350676   -1.6742453882   -2.0270851810
H        3.6853722154   -1.7684615959    0.0822294173
H        4.9023631610    0.1376255548    1.0525917811
H        6.1788281774    0.0007986974   -0.1420267146
22   
Generated by ForceBalance from scan.xyz: Frame 7 of 24
C        7.6233461774   -1.8580914318    0.9573384605
C        8.4452549137   -2.6816116602    1.7277417115
C        6.8352456601   -2.5354638315    3.5395816500
C        6.4034721061   -1.3599957434    1.4359845181
C        6.0271859304   -1.7118299359    2.7476880183
C        8.0283783167   -3.0088735821    3.0117203533
C        4.9446997552   -2.0876089589   -1.3792344760
C        4.5852763497   -1.3480982146   -0.3256030367
C        5.5451514890   -0.5123104833    0.5086115995
C        4.7466924324   -1.1854484298    3.3518615121
F        8.8109375042   -3.8073255107    3.7790142184
F        4.5099275934   -1.6933588698    4.5830025079
F        4.7677941484    0.1694161488    3.4871557247
F        3.6579560366   -1.4789928496    2.5921874148
H        7.9403146965   -1.5921402481   -0.0471910100
H        9.3895619514   -3.0612459123    1.3497063147
H        6.5491388018   -2.8060011382    4.5492944621
H        4.2211937629   -2.6911403599   -1.9210610024
H        5.9710407746   -2.1152188430   -1.7418217991
H        3.5507395058   -1.3713220204    0.0102208527
H        4.9887361718    0.2400892453    1.0690603091
H        6.2176700761    0.0326792621   -0.1610907076
22   
Generated by ForceBalance from scan.xyz: Frame 8 of 24
C        7.6800772115   -1.7619620852    0.9412314186
C        8.4956802429   -2.5951480437    1.7096433395
C        6.8324316926   -2.5336858179    3.4770251761
C        6.4370314743   -1.3035556138    1.3991019872
C        6.0308649488   -1.7016430458    2.6889866042
C        8.0491553774   -2.9701565216    2.9696105379
C        4.9346568278   -2.2249944262   -1.2146402991
C        4.5952798006   -1.2644349023   -0.3500964916
C        5.5844915232   -0.4498831974    0.4765516597
C        4.7258269939   -1.2136787210    3.2731700135
F        8.8238979908   -3.7776967000    3.7353616668
F        4.4651580814   -1.7612802830    4.4826551866
F        4.7243776892    0.1372851405    3.4494065765
F        3.6631619000   -1.4986785092    2.4772240873
H        8.0220167307   -1.4542080352   -0.0431461345
H        9.4576091499   -2.9449204673    1.3476047147
H        6.5243818961   -2.8393406651    4.4701016159
H        4.1806434691   -2.7671991977   -1.7790639693
H        5.9705205089   -2.5156513123   -1.3799600517
H        3.5427217069   -1.0284125303   -0.2081156778
H        5.0431147020    0.3085371790    1.0437862758
H        6.2542872724    0.0927640084   -0.1983768048
22   
Generated by ForceBalance from scan.xyz: Frame 9 of 24
C        7.6932232700   -1.6591588429    0.9026171295
C        8.5280903974   -2.4947247856    1.6482130231
C        6.8751541574   -2.4968174002    3.4272324251
C        6.4464884017   -1.2306458131    1.3783758334
C        6.0544456580   -1.6630735568    2.6617974794
C        8.0958683871   -2.9022418396    2.9027246236
C        4.8754590297   -2.2976500155   -1.0302664067
C        4.5862792459   -1.1811398072   -0.3556433567
C        5.5728437923   -0.3760917191    0.4810210199
C        4.7469766639   -1.2057988891    3.2665107231
F        8.8885719558   -3.7123775729    3.6469415719
F        4.5034562032   -1.7861516496    4.4646837378
F        4.7337759256    0.1406554847    3.4773353162
F        3.6818592157   -1.4818492571    2.4734421439
H        8.0205034062   -1.3274419915   -0.0791134167
H        9.4924858777   -2.8223215549    1.2723226559
H        6.5792518730   -2.8277831748    4.4159038103
H        4.1231127692   -2.7979645748   -1.6341635378
H        5.8569001162   -2.7649068982   -0.9848741593
H        3.5818209285   -0.7673396759   -0.4266239473
H        5.0225777606    0.3597978988    1.0699258257
H        6.2207437637    0.1995501067   -0.1896117975
22   
Generated by ForceBalance from scan.xyz: Frame 10 of 24
C        7.6960930868   -1.6307728785    0.8802493099
C        8.5370781512   -2.4701071858    1.6142393993
C        6.8867784351   -2.5025936899    3.3963078186
C        6.4486822849   -1.2133781273    1.3642238994
C        6.0597409100   -1.6647871431    2.6417202447
C        8.1092045630   -2.8936300395    2.8651767426
C        4.8623711649   -2.3569336672   -0.9206525136
C        4.6354980516   -1.1383225615   -0.4214922851
C        5.5736911423   -0.3511002875    0.4784964963
C        4.7493389894   -1.2245176947    3.2538855495
F        8.9080020494   -3.7075013021    3.5985531825
F        4.5124854392   -1.8228784173    4.4448336999
F        4.7285783491    0.1188578798    3.4840164880
F        3.6855525748   -1.4967858071    2.4594362681
H        8.0158078546   -1.2900218432   -0.1009582243
H        9.5018677202   -2.7893631995    1.2322725349
H        6.5941428767   -2.8474637437    4.3811869415
H        4.1489112486   -2.8265234055   -1.5925821268
H        5.7442087678   -2.9365416692   -0.6583185828
H        3.7290132203   -0.6096521797   -0.7142958254
H        4.9841112072    0.3447802525    1.0791556674
H        6.2171129268    0.2753401807   -0.1515276537
22   
Generated by ForceBalance from scan.xyz: Frame 11 of 24
C        7.6865732878   -1.5950787521    0.8521214356
C        8.5374865965   -2.4314125306    1.5768668187
C        6.9022169359   -2.4790359946    3.3716113079
C        6.4415403004   -1.1839644534    1.3482256722
C        6.0642265476   -1.6432374205    2.6256530710
C        8.1229476760   -2.8605469254    2.8309635656
C        4.8190330820   -2.3737954795   -0.8393507806
C        4.6882716250   -1.0885595713   -0.4978246809
C        5.5629830023   -0.3174792543    0.4712096179
C        4.7529169668   -1.2179274514    3.2468467915
F        8.9328088458   -3.6715046241    3.5553435785
F        4.5307460145   -1.8202661456    4.4387913135
F        4.7183047587    0.1247773754    3.4788279340
F        3.6881819812   -1.5022420824    2.4585540295
H        7.9933666911   -1.2539234891   -0.1330862586
H        9.5004102292   -2.7451809629    1.1858083866
H        6.6182610763   -2.8295258552    4.3570015894
H        4.1530346223   -2.8267977097   -1.5688936189
H        5.5715452713   -3.0190272981   -0.3932015090
H        3.9108281080   -0.4923639871   -0.9756704853
H        4.9263764936    0.3333171250    1.0756186960
H        6.2028375941    0.3600247147   -0.1089360809
22   
Generated by ForceBalance from scan.xyz: Frame 12 of 24
C        7.6806892153   -1.6070386656    0.8542088378
C        8.5382211577   -2.4420825593    1.5708918071
C        6.9106652255   -2.5070854872    3.3729984608
C        6.4365023502   -1.2024395465    1.3590484795
C        6.0656359894   -1.6707649064    2.6340286041
C        8.1308761709   -2.8783351679    2.8257038849
C        4.7748649163   -2.3956078062   -0.7767736424
C        4.7660117480   -1.0770239890   -0.5604387663
C        5.5586725699   -0.3272243081    0.4894671716
C        4.7495229843   -1.2631549448    3.2567108837
F        8.9484350458   -3.6885269887    3.5421651714
F        4.5341519406   -1.8712218213    4.4469565993
F        4.6959132742    0.0781392230    3.4913308519
F        3.6897794237   -1.5608573941    2.4658512957
H        7.9792002259   -1.2624316710   -0.1323119616
H        9.5006564023   -2.7503231293    1.1742202093
H        6.6312631616   -2.8656377774    4.3567527810
H        4.1646218523   -2.8366098948   -1.5604203256
H        5.3766332318   -3.0762344698   -0.1801309459
H        4.1372321058   -0.4429445651   -1.1859916564
H        4.8654161023    0.2662789453    1.0912003974
H        6.1962254851    0.4057843909   -0.0219100392
22   
Generated by ForceBalance from scan.xyz: Frame 13 of 24
C        7.6477090314   -1.5431080461    0.8121203958
C        8.5109876402   -2.3597249594    1.5415398248
C        6.8838560127   -2.4130956297    3.3437451911
C        6.4002575887   -1.1401993777    1.3111679466
C        6.0324156015   -1.5938127173    2.5918115351
C        8.1072643567   -2.7813252972    2.8031606219
C        4.6646816710   -2.3583309538   -0.7627293536
C        4.8119163499   -1.0329799681   -0.6768169808
C        5.5220929187   -0.2777008340    0.4272739196
C        4.7103058461   -1.1928300732    3.2054609908
F        8.9318267462   -3.5741789670    3.5310058234
F        4.5004725286   -1.7837044335    4.4051850127
F        4.6363182442    0.1509614238    3.4168217513
F        3.6564478398   -1.5201895596    2.4170378660
H        7.9428904497   -1.2124151627   -0.1801261780
H        9.4760679549   -2.6660237145    1.1498193287
H        6.6057796006   -2.7609013987    4.3317287362
H        4.1090183303   -2.8064180715   -1.5821254675
H        5.0922238992   -3.0361973719   -0.0283230136
H        4.3529383514   -0.3994401196   -1.4361831130
H        4.7777853595    0.2728693580    1.0083480806
H        6.1540291546    0.4915502875   -0.0345521889
22   
Generated by ForceBalance from scan.xyz: Frame 14 of 24
C        7.6299227151   -1.5263464652    0.8159347460
C        8.4886182912   -2.3274989374    1.5662931796
C        6.8377471750   -2.3692656344    3.3483862004
C        6.3734746548   -1.1239867385    1.2934703257
C        5.9919236442   -1.5637125051    2.5743318557
C        8.0699162188   -2.7354814078    2.8280976806
C        4.5754592061   -2.3221488838   -0.7868320959
C        4.9005237576   -1.0258710731   -0.7801246928
C        5.5062769400   -0.2702884771    0.3874719086
C        4.6575352415   -1.1670548194    3.1629053544
F        8.8898940252   -3.5143570259    3.5760057919
F        4.4362871368   -1.7396133000    4.3692165874
F        4.5627704624    0.1786610457    3.3484614811
F        3.6185495483   -1.5222184030    2.3643086589
H        7.9356366290   -1.2073278826   -0.1769145234
H        9.4606019792   -2.6330556275    1.1912836222
H        6.5481730643   -2.7075859428    4.3363545211
H        4.0978505577   -2.7750703404   -1.6515692329
H        4.7853976553   -2.9735310515    0.0579811301
H        4.6554093152   -0.4148456580   -1.6488546502
H        4.7049151253    0.2273280891    0.9385250275
H        6.1317180362    0.5378487452   -0.0102964191
22   
Generated by ForceBalance from scan.xyz: Frame 15 of 24
C        7.3422293524   -1.6907087408    0.6834850714
C        8.3617850949   -2.4176166481    1.3023699609
C        7.0610412420   -2.4320895014    3.3540789542
C        6.1784133291   -1.3112302731    1.3658719788
C        6.0545364701   -1.7018139488    2.7153838422
C        8.1999539522   -2.7712909424    2.6348111934
C        6.5012710432    1.6784095190    0.7734185967
C        5.3347025692    1.0307328551    0.8444543753
C        5.1475735750   -0.4676512412    0.6417252166
C        4.8082294414   -1.3746576453    3.5054237085
F        9.1759076848   -3.4781337861    3.2563275055
F        4.9036782611   -1.7608793679    4.7989652244
F        4.5291209649   -0.0473713482    3.5125935753
F        3.7096354253   -1.9987823608    2.9944069360
H        7.4523384388   -1.4107276831   -0.3608003612
H        9.2611269575   -2.7083036973    0.7682041818
H        6.9680331718   -2.7379424883    4.3896938375
H        6.5554792471    2.7568319905    0.8964522492
H        7.4433138648    1.1570199407    0.6176368044
H        4.4233363870    1.6009004029    1.0162911649
H        5.2059983354   -0.6905368100   -0.4295884763
H        4.1385751624   -0.7461414433    0.9506535262
22   
Generated by ForceBalance from scan.xyz: Frame 16 of 24
C        7.3845605067   -1.6665729725    0.7314980626
C        8.3921799211   -2.4069403380    1.3531188396
C        7.0522569143   -2.4637079277    3.3769839944
C        6.2071188371   -1.2993216421    1.3976010031
C        6.0574124307   -1.7195565286    2.7348618738
C        8.2052193798   -2.7890628704    2.6746952956
C        6.4867790177    1.7356001169    0.5918756267
C        5.3820206505    1.0521402185    0.9044133415
C        5.1879734555   -0.4417577269    0.6677719330
C        4.7982770350   -1.4036799980    3.5076948410
F        9.1687772893   -3.5097302991    3.2999053796
F        4.8663324622   -1.8144512100    4.7950571252
F        4.5271411126   -0.0733679463    3.5351124539
F        3.7056557285   -2.0088716442    2.9635525778
H        7.5147804305   -1.3687299315   -0.3053048019
H        9.3007429098   -2.6878928906    0.8293746670
H        6.9390303087   -2.7906217782    4.4040397413
H        6.5615518972    2.8030669100    0.7816639893
H        7.3590962607    1.2561532346    0.1513982964
H        4.5467296259    1.5777937569    1.3623640539
H        5.2754036825   -0.6492831183   -0.4036357047
H        4.1730003699   -0.7237682789    0.9512154276
22   
Generated by ForceBalance from scan.xyz: Frame 17 of 24
C        7.4246461248   -1.6135041819    0.7879827807
C        8.4191519140   -2.3750831206    1.4030474410
C        7.0332786374   -2.5195348841    3.3903016279
C        6.2286285857   -1.2797152480    1.4386570102
C        6.0501964990   -1.7533948260    2.7537909003
C        8.2032072583   -2.8126731818    2.7035811577
C        6.4489867733    1.7867884189    0.3755645476
C        5.4657992440    1.0832410303    0.9452252815
C        5.2211670512   -0.4005654039    0.7124720116
C        4.7739980873   -1.4699856485    3.5105813269
F        9.1558116750   -3.5545652755    3.3208224711
F        4.8150725097   -1.9293262020    4.7822325841
F        4.5014446321   -0.1399700576    3.5841283731
F        3.6934127106   -2.0522542414    2.9209321648
H        7.5814157107   -1.2691134355   -0.2304018931
H        9.3415527437   -2.6306046913    0.8906153370
H        6.8973221809   -2.8864232414    4.4009592380
H        6.5954526110    2.8393966467    0.6032421211
H        7.1392893220    1.3415173747   -0.3392196711
H        4.8158433936    1.5702972715    1.6690533204
H        5.3056887098   -0.6122586092   -0.3579646551
H        4.2002879111   -0.6559735825    0.9995350874
22   
Generated by ForceBalance from scan.xyz: Frame 18 of 24
C        7.4627494141   -1.5412983242    0.8786302399
C        8.4457311306   -2.3236638700    1.4838910178
C        7.0031005780   -2.5817394182    3.4200590128
C        6.2416181824   -1.2587148005    1.5066230541
C        6.0305167821   -1.7940859179    2.7919838586
C        8.1939108461   -2.8307256106    2.7532839804
C        6.3530737596    1.8207491360    0.1752705716
C        5.5591521153    1.1057446262    0.9788945544
C        5.2428275252   -0.3639836307    0.7838503476
C        4.7353066865   -1.5472947040    3.5290809579
F        9.1361173422   -3.5938816344    3.3601345754
F        4.7475513025   -2.0596995977    4.7807146981
F        4.4593985931   -0.2205366103    3.6532435090
F        3.6698737323   -2.1039320903    2.8906694106
H        7.6494125844   -1.1325668673   -0.1105859860
H        9.3877381269   -2.5410147924    0.9898044167
H        6.8430445596   -2.9964493423    4.4084352125
H        6.5854376399    2.8611481604    0.3875632657
H        6.7840911619    1.3983674472   -0.7313052993
H        5.1618809494    1.5636729332    1.8832213702
H        5.2928867698   -0.6009007616   -0.2836095027
H        4.2212422249   -0.5729014985    1.1042143468
22   
Generated by ForceBalance from scan.xyz: Frame 19 of 24
C        7.5141773803   -1.5392476417    0.9107270687
C        8.4700444854   -2.3552198375    1.5147946265
C        6.9798201344   -2.6429613447    3.4104065703
C        6.2820983760   -1.2572776458    1.5174897144
C        6.0346152474   -1.8214070353    2.7834511917
C        8.1802638793   -2.8952901207    2.7625236067
C        6.2732771489    1.8764914929    0.0372906481
C        5.6958026457    1.1201830354    0.9765642918
C        5.3155485156   -0.3314468971    0.7903078786
C        4.7314043289   -1.5643680602    3.5025811179
F        9.0951299747   -3.6924030568    3.3675702848
F        4.7095418363   -2.1074186894    4.7409819775
F        4.4847418004   -0.2344282897    3.6549975667
F        3.6655349148   -2.0799264784    2.8320029169
H        7.7305006199   -1.0995171442   -0.0591904742
H        9.4205744012   -2.5725181015    1.0372912314
H        6.7915072601   -3.0805558668    4.3838356947
H        6.5542500007    2.9082279480    0.2328572320
H        6.4700640361    1.4951961541   -0.9636196857
H        5.5222529947    1.5329552191    1.9694804756
H        5.3442012699   -0.5757231867   -0.2763227883
H        4.2889063257   -0.4932972066    1.1235207770
22   
Generated by ForceBalance from scan.xyz: Frame 20 of 24
C        7.5443238003   -1.5646981925    0.9192056960
C        8.4722737070   -2.4023343920    1.5374589176
C        6.9316145016   -2.6819049460    3.3940899478
C        6.3027166571   -1.2674417336    1.4990623954
C        6.0155690559   -1.8381860791    2.7535868761
C        8.1428765082   -2.9489189499    2.7723177522
C        6.1196903722    1.9624105915   -0.0205634372
C        5.7739622420    1.1248522339    0.9624816218
C        5.3733351732   -0.3177690793    0.7572407668
C        4.7006029678   -1.5643151425    3.4448203582
F        9.0288649755   -3.7674769321    3.3914396495
F        4.6391861613   -2.1207959823    4.6760126418
F        4.4763817827   -0.2317487332    3.6067264271
F        3.6415304089   -2.0518596764    2.7434243228
H        7.7899444799   -1.1192528586   -0.0412177976
H        9.4303308164   -2.6311302382    1.0808064403
H        6.7128435274   -3.1255584653    4.3583534250
H        6.3965665103    2.9935769272    0.1838558969
H        6.1298455222    1.6476028397   -1.0629061287
H        5.7756181639    1.4731252821    1.9946144040
H        5.4085811977   -0.5535698530   -0.3110307087
H        4.3379573347   -0.4579286087    1.0756841975
22   
Generated by ForceBalance from scan.xyz: Frame 21 of 24
C        7.5869903099   -1.6046939088    0.9378559361
C        8.4880118014   -2.4570177334    1.5760100124
C        6.9071089709   -2.7053679980    3.4026769295
C        6.3398124781   -1.2838000446    1.4931997969
C        6.0188925256   -1.8468001705    2.7431591946
C        8.1253905581   -2.9951957802    2.8050812646
C        5.9505290009    2.0329042600   -0.0240942120
C        5.8513203734    1.1215820841    0.9488274475
C        5.4434878770   -0.3191025206    0.7338190277
C        4.6972434506   -1.5460964727    3.4104177042
F        8.9844640459   -3.8280356622    3.4427661672
F        4.6029358911   -2.1000634783    4.6407952404
F        4.4974986809   -0.2094318309    3.5668846960
F        3.6414412691   -2.0136552561    2.6906482782
H        7.8578986438   -1.1677358755   -0.0197450121
H        9.4504125861   -2.7038419467    1.1383075064
H        6.6617919912   -3.1429523440    4.3633270855
H        6.2131439565    3.0654330359    0.1915755680
H        5.7732980826    1.7777342533   -1.0677541150
H        6.0287583693    1.4147455600    1.9828265312
H        5.4864273732   -0.5547976918   -0.3341520499
H        4.4007276860   -0.4419102622    1.0365607925
22   
Generated by ForceBalance from scan.xyz: Frame 22 of 24
C        7.6217158995   -1.6627395191    0.9305613423
C        8.4954436690   -2.5254517286    1.5929729240
C        6.8820455553   -2.7151343564    3.3984212986
C        6.3743694772   -1.3064221444    1.4635770611
C        6.0222271874   -1.8463262184    2.7156176326
C        8.1030457841   -3.0384385106    2.8233911539
C        5.7667838819    2.0952628957    0.0322176769
C        5.9070362608    1.1132585691    0.9279314438
C        5.5114050779   -0.3300917595    0.6841767904
C        4.6962904187   -1.5105048214    3.3578293851
F        8.9343834490   -3.8803684206    3.4853411556
F        4.5719820264   -2.0451759751    4.5943758551
F        4.5197410750   -0.1690747873    3.4916294083
F        3.6434759335   -1.9693032966    2.6276928367
H        7.9150342814   -1.2472576158   -0.0300313557
H        9.4581756974   -2.7992238414    1.1723577338
H        6.6129615856   -3.1353862083    4.3604297832
H        6.0183658886    3.1238219710    0.2774591483
H        5.4023552451    1.9047408027   -0.9762092616
H        6.2615443370    1.3479330373    1.9305826111
H        5.5878889242   -0.5562380270   -0.3839125900
H        4.4582698109   -0.4545741875    0.9484760105
22   
Generated by ForceBalance from scan.xyz: Frame 23 of 24
C        7.6525224201   -1.7139222435    0.9464608357
C        8.4949139946   -2.5763902166    1.6496256875
C        6.8427948886   -2.6860126507    3.4256200598
C        6.4033391133   -1.3171984371    1.4449455433
C        6.0157333759   -1.8180976576    2.7031565673
C        8.0685808935   -3.0486684810    2.8847114174
C        5.5845543788    2.1312378034    0.1135744813
C        5.9477986857    1.1084842178    0.8930073916
C        5.5753317709   -0.3423452762    0.6291850870
C        4.6831615638   -1.4400618111    3.3073145244
F        8.8688629331   -3.8894810708    3.5852528372
F        4.5227091177   -1.9397927463    4.5546231211
F        4.5291281723   -0.0937981684    3.4008786061
F        3.6380865568   -1.9005053599    2.5665310247
H        7.9730385206   -1.3334501560   -0.0199524336
H        9.4594393138   -2.8811379380    1.2553126475
H        6.5452664009   -3.0758298611    4.3920826589
H        5.8444472002    3.1550720689    0.3692527096
H        5.0194093504    1.9820089104   -0.8054696570
H        6.5003769351    1.3058648311    1.8102365322
H        5.7124357742   -0.5669134321   -0.4333956243
H        4.5105902129   -0.4789465772    0.8325590690
22   
Generated by ForceBalance from scan.xyz: Frame 24 of 24
C        7.7052948557   -1.7567460616    0.9218347955
C        8.5350954890   -2.6306566142    1.6262610625
C        6.8812830695   -2.7076391727    3.4032772649
C        6.4636381816   -1.3370144383    1.4200878453
C        6.0680893757   -1.8279013230    2.6799152298
C        8.1008858264   -3.0916348064    2.8626541241
C        5.4749422584    2.1487920544    0.2676761102
C        6.0436320372    1.0976648977    0.8647661147
C        5.6517039714   -0.3504544322    0.6030561842
C        4.7423256162   -1.4248659167    3.2833523950
F        8.8871432679   -3.9439373317    3.5651282147
F        4.5717200097   -1.9232378196    4.5301784616
F        4.6130455795   -0.0773554696    3.3768803233
F        3.6897146736   -1.8669533209    2.5411766306
H        8.0302873968   -1.3876620166   -0.0475523321
H        9.4937777946   -2.9529466166    1.2316174720
H        6.5779801813   -3.0902853257    4.3708244229
H        5.7925440542    3.1636968232    0.4916881698
H        4.6716165462    2.0336367997   -0.4587161934
H        6.8385108674    1.2617003060    1.5909305865
H        5.8095557771   -0.5773914383   -0.4570485768
H        4.5821676782   -0.4767838361    0.7821470168
