16   

C        0.5835530198    0.8867059944    1.7731429256
C        0.3344247957    0.9003438622    3.1258243558
C       -0.2610893746    0.1632357467    0.9623554538
C       -4.2782735999   -1.9971502027    4.4797689160
C       -4.3309925047   -2.6059300135    3.2689068466
C       -1.4934568340   -0.4679937987    2.7986909337
C       -2.6556103790   -1.2100371894    3.3143732217
N       -0.6923707295    0.2317341134    3.6338208757
N       -1.2902884055   -0.5056209028    1.4705701510
N       -3.2196027328   -1.1199490757    4.4892672797
O       -3.3168739273   -2.1251998100    2.5131283934
H        1.4201589777    1.4312799983    1.3593067746
H        0.9823969325    1.4630427095    3.7882225063
H       -0.0863612761    0.1381448965   -0.1071897857
H       -4.9602491953   -2.1724525645    5.3035666483
H       -5.0579889740   -3.3470982389    2.9599878850
16   

C        0.5779208558    0.8955903128    1.7741235734
C        0.3873381355    0.8314878178    3.1350282126
C       -0.3155477386    0.2382499325    0.9590642935
C       -4.3332487403   -1.9259441407    4.4425684930
C       -4.2549065794   -2.6873756546    3.3224352852
C       -1.4777479449   -0.4832503314    2.8063988359
C       -2.6427222414   -1.2214117697    3.3261236023
N       -0.6297657621    0.1509907878    3.6470008372
N       -1.3356500983   -0.4417875513    1.4708379040
N       -3.3131256816   -1.0040693353    4.4248001171
O       -3.1949212970   -2.2602707363    2.5977581974
H        1.4065856161    1.4499024062    1.3572467589
H        1.0740293074    1.3420804040    3.8006267552
H       -0.1878164917    0.2761327077   -0.1167325390
H       -5.0801116876   -2.0258845642    5.2214648618
H       -4.9244181215   -3.4954145004    3.0538840932
16   

C        0.5647722440    0.8994388582    1.7805777132
C        0.4333203145    0.7555665863    3.1426660530
C       -0.3807412697    0.3146709344    0.9684843665
C       -4.3980492434   -1.8609458120    4.3988949841
C       -4.1905825073   -2.7575119322    3.4013764882
C       -1.4752862876   -0.4932138506    2.8191821012
C       -2.6448301174   -1.2267187641    3.3449546727
N       -0.5769307706    0.0677144161    3.6588296847
N       -1.3944189507   -0.3722256736    1.4839204559
N       -3.4176458492   -0.8981300261    4.3419975164
O       -3.0873181884   -2.3761379669    2.7165409673
H        1.3877706034    1.4598288063    1.3605996933
H        1.1615839654    1.2087348680    3.8056437959
H       -0.3000939570    0.4168530674   -0.1076892074
H       -5.2073396792   -1.8956490344    5.1188437697
H       -4.8021029327   -3.6259502491    3.1888716486
16   

C        0.5594684492    0.9070926732    1.7764765242
C        0.4816147264    0.6759654463    3.1309730926
C       -0.4402774176    0.4096316312    0.9706461858
C       -4.4684553549   -1.7987560856    4.3146764581
C       -4.1283377096   -2.8073899607    3.4721092133
C       -1.4813653195   -0.4822925105    2.8107191904
C       -2.6595605159   -1.2108311084    3.3375966994
N       -0.5296213957   -0.0116123058    3.6461534645
N       -1.4549736009   -0.2768829486    1.4846615471
N       -3.5330299148   -0.7959078995    4.2082981269
O       -2.9854636288   -2.4569223883    2.8372811680
H        1.3830992873    1.4673869330    1.3575977832
H        1.2535606519    1.0592986245    3.7885623380
H       -0.4019101852    0.5813964834   -0.0989928010
H       -5.3382991982   -1.7842276049    4.9609358036
H       -4.6767325833   -3.7307519634    3.3307699735
16   

C        0.5685585529    0.9024960366    1.7832549401
C        0.5310360306    0.5741578929    3.1194793091
C       -0.4846026085    0.5138838645    0.9852718316
C       -4.5417927447   -1.7494448387    4.2169435182
C       -4.0634044319   -2.8438132258    3.5711482829
C       -1.4997784989   -0.4566916257    2.7973529361
C       -2.6907725131   -1.1803801207    3.3168223428
N       -0.4935801935   -0.1009195480    3.6252179498
N       -1.5121980661   -0.1604925895    1.4896705408
N       -3.6616811886   -0.7073330203    4.0382544482
O       -2.8887160591   -2.5072608172    2.9889039671
H        1.4028538331    1.4527379535    1.3722161813
H        1.3464511047    0.8692042803    3.7701059156
H       -0.4776293147    0.7619188879   -0.0699721428
H       -5.4679751520   -1.7039658840    4.7778501384
H       -4.5391825176   -3.8159760140    3.5280297123
16   

C        0.5729516632    0.8983402964    1.7921320105
C        0.5548584300    0.4512957297    3.0937148568
C       -0.5247832743    0.6455571414    0.9998024160
C       -4.6327493093   -1.7127985157    4.0829995973
C       -4.0183438064   -2.8520993852    3.6729575483
C       -1.5489509433   -0.4156586591    2.7548189642
C       -2.7533230178   -1.1393395868    3.2498830875
N       -0.4948982495   -0.2045093038    3.5727950571
N       -1.5764881397   -0.0104606281    1.4779384327
N       -3.8145575981   -0.6419060840    3.8064434467
O       -2.8208267235   -2.5140991657    3.1401742702
H        1.4273668215    1.4331914171    1.4026797429
H        1.4067676989    0.6348612873    3.7385586547
H       -0.5328126213    0.9856002376   -0.0294764160
H       -5.6083507388   -1.6570309078    4.5516089351
H       -4.4165951792   -3.8558933634    3.7573832240
16   

C        0.5783777548    0.9009230156    1.7988120314
C        0.5800994436    0.3316504191    3.0516666389
C       -0.5534027325    0.7716530689    1.0251033624
C       -4.6897698190   -1.7238211180    3.9343197902
C       -3.9617014899   -2.8581855493    3.7716348285
C       -1.5753462498   -0.4000753966    2.7110917457
C       -2.7829038375   -1.1348424342    3.1739509294
N       -0.4841106748   -0.3200192702    3.5038144777
N       -1.6187545650    0.1188600123    1.4763408526
N       -3.9230281567   -0.6454708796    3.5578152902
O       -2.7442765869   -2.5101296692    3.2932885839
H        1.4442946190    1.4328665459    1.4314140042
H        1.4598725994    0.4137268875    3.6797860539
H       -0.5769860250    1.2066807764    0.0324813437
H       -5.7073152556   -1.6761582681    4.3042233460
H       -4.2958998551   -3.8655570903    3.9880640107
16   

C        0.5786344165    0.9159482196    1.8043341374
C        0.6126026073    0.2448817046    3.0051722154
C       -0.5852094451    0.8795683463    1.0693350006
C       -4.7183794992   -1.7400899487    3.8168772240
C       -3.9175658764   -2.8336481550    3.8925630989
C       -1.5766016481   -0.3981200293    2.6974939077
C       -2.7800939182   -1.1407983584    3.1415150940
N       -0.4517832005   -0.4139246150    3.4464728414
N       -1.6504791918    0.2192979022    1.5091575262
N       -3.9783566284   -0.6785839134    3.3504301465
O       -2.6802937371   -2.4777331759    3.4748039815
H        1.4446616090    1.4540424526    1.4462781263
H        1.5183548042    0.2515867410    3.6008563511
H       -0.6344176882    1.3947434510    0.1168268424
H       -5.7677965659   -1.7080625715    4.0855582976
H       -4.2158459713   -3.8187359593    4.2301287121
16   

C        0.5721953280    0.9272286288    1.8048547241
C        0.6423173283    0.1711930216    2.9524109735
C       -0.6216457292    0.9643256067    1.1197600116
C       -4.7340818367   -1.7785980935    3.7100790543
C       -3.8925220576   -2.8015160224    4.0062978245
C       -1.5707774573   -0.4111713810    2.6943552372
C       -2.7686437239   -1.1575242146    3.1312680206
N       -0.4159727579   -0.4988837616    3.3914318843
N       -1.6808212062    0.2929535143    1.5568374322
N       -4.0049188901   -0.7459769222    3.1683711019
O       -2.6394767335   -2.4302732618    3.6541374334
H        1.4334223390    1.4744232677    1.4490214293
H        1.5720079026    0.1194593934    3.5076314327
H       -0.6999676115    1.5476022677    0.2094042596
H       -5.8047047955   -1.7748191197    3.8781129316
H       -4.1739691639   -3.7492067463    4.4489991296
16   

C        0.5623834749    0.9396924299    1.8048644381
C        0.6651114648    0.1107841552    2.8983309329
C       -0.6577889201    1.0409995524    1.1749204664
C       -4.7429299534   -1.8252828431    3.6139475192
C       -3.8859661602   -2.7515795871    4.1132380754
C       -1.5667023552   -0.4218526282    2.6951361807
C       -2.7608623401   -1.1667580728    3.1327682215
N       -0.3865865395   -0.5690893342    3.3381514565
N       -1.7105248848    0.3603973664    1.6127078023
N       -4.0153890222   -0.8292402137    3.0061071347
O       -2.6241829635   -2.3553350192    3.8255953240
H        1.4185252372    1.4943971538    1.4483929637
H        1.6155073211    0.0089938663    3.4098582009
H       -0.7626649703    1.6836935226    0.3082973151
H       -5.8235929455   -1.8629685312    3.6862127230
H       -4.1629719446   -3.6508910731    4.6497245308
16   

C        0.5524580762    0.9576469457    1.8121453779
C        0.6801924348    0.0637255760    2.8502863178
C       -0.6891516390    1.1199549133    1.2395824633
C       -4.7451377816   -1.8743465589    3.5345354858
C       -3.8935371789   -2.6793494410    4.2185531798
C       -1.5674453144   -0.4204457477    2.7012357553
C       -2.7603092496   -1.1609466298    3.1439190763
N       -0.3673422365   -0.6221827167    3.2906621087
N       -1.7378423245    0.4339711890    1.6783088960
N       -4.0140596502   -0.9205851970    2.8664543822
O       -2.6314752083   -2.2473442175    3.9898904299
H        1.4054893729    1.5165392418    1.4547619167
H        1.6472072677   -0.0850990775    3.3172009105
H       -0.8147181445    1.8163988834    0.4184331503
H       -5.8247740997   -1.9672003784    3.5192596290
H       -4.1743684244   -3.5209047308    4.8400250585
16   

C        0.5490481084    0.9715129860    1.8276902288
C        0.6933539267    0.0150050762    2.8061479113
C       -0.7084557663    1.1943942708    1.3131709644
C       -4.7365160457   -1.9344111907    3.4596920137
C       -3.9122961206   -2.5985522290    4.3085191285
C       -1.5672838730   -0.4194497466    2.7059281953
C       -2.7615353951   -1.1545346662    3.1522033422
N       -0.3528689524   -0.6752277727    3.2428788931
N       -1.7560094260    0.5048648835    1.7489051560
N       -3.9947168180   -1.0285273564    2.7389717164
O       -2.6571335998   -2.1235782626    4.1335106057
H        1.4012457052    1.5331042329    1.4725562820
H        1.6725742712   -0.1803403460    3.2283365868
H       -0.8478368931    1.9427733275    0.5414267485
H       -5.8045159655   -2.0925011583    3.3656120636
H       -4.2069768098   -3.3739431251    5.0051117210
16   

C        0.5479140003    0.9806542515    1.8428951477
C        0.7019444065   -0.0365442651    2.7565429433
C       -0.7207755950    1.2637267327    1.3889370190
C       -4.7180210635   -2.0062214500    3.3915216841
C       -3.9401946715   -2.5117075375    4.3817796040
C       -1.5694809895   -0.4189194107    2.7038512655
C       -2.7662633005   -1.1489628187    3.1532201611
N       -0.3452547662   -0.7293527283    3.1868106521
N       -1.7694755096    0.5722733125    1.8189647141
N       -3.9608223167   -1.1526407893    2.6243712614
O       -2.6995949183   -1.9866640498    4.2515490104
H        1.4010385138    1.5436251520    1.4921959502
H        1.6897287787   -0.2783045332    3.1321879497
H       -0.8682436671    2.0623463517    0.6709209348
H       -5.7641844217   -2.2390445195    3.2308818725
H       -4.2564022622   -3.2136964854    5.1437068721
16   

C        0.6387285274    0.8369685531    1.8289044216
C       -0.3408349501    1.4524153266    2.5739070348
C        0.4989011433   -0.5034792934    1.5467786349
C       -3.9498818034   -2.8844850321    3.8682214169
C       -4.6558449885   -1.7254785735    3.8643630991
C       -1.4726472766   -0.5480637769    2.7248364727
C       -2.6255460079   -1.3481765063    3.1755755822
N       -1.3906140502    0.7699795439    3.0143553636
N       -0.5514015026   -1.1873322576    1.9853474193
N       -2.6694849395   -2.6259683864    3.4385339312
O       -3.8382032185   -0.7365202873    3.4339319892
H        1.4941176051    1.3926849712    1.4722007120
H       -0.2577333338    2.5080743378    2.8061847274
H        1.2548649972   -1.0095863196    0.9573174269
H       -4.3321178417   -3.8541097200    4.1652044422
H       -5.6927193626   -1.6110420409    4.1560940709
16   

C        0.6291903265    0.8432514103    1.8202974956
C       -0.3059355927    1.4278014341    2.6432926705
C        0.4505684997   -0.4741944941    1.4618417827
C       -3.9277809338   -2.8648364630    3.9618423908
C       -4.6829286710   -1.7582475422    3.7437102670
C       -1.4661305941   -0.5597737231    2.7231230822
C       -2.6216733901   -1.3634341186    3.1721693703
N       -1.3491737401    0.7369871647    3.0862067035
N       -0.5936414797   -1.1661988809    1.9027220242
N       -2.6276872697   -2.5930315791    3.6050361616
O       -3.8768753840   -0.7902359840    3.2485182628
H        1.4795953562    1.4054398871    1.4618189267
H       -0.1927673333    2.4655740228    2.9356864035
H        1.1701862675   -0.9549663097    0.8090760205
H       -4.2897645689   -3.8065788777    4.3575341102
H       -5.7451508241   -1.6650688762    3.9342783834
16   

C        0.6220954653    0.8579814351    1.8183249355
C       -0.2565641928    1.4045663235    2.7253525601
C        0.3958439481   -0.4293650007    1.3851631619
C       -3.9083708458   -2.8208493459    4.0776055360
C       -4.6917290094   -1.8007420257    3.6432885381
C       -1.4537984945   -0.5619593934    2.7370103695
C       -2.6089975001   -1.3690837869    3.1965672664
N       -1.2909173965    0.7056832157    3.1763135316
N       -0.6398043041   -1.1291633807    1.8345128499
N       -2.5951895841   -2.5240685446    3.7956881570
O       -3.8899203257   -0.8638085602    3.0853462766
H        1.4653718647    1.4264358466    1.4529521677
H       -0.1057652191    2.4185558059    3.0779947578
H        1.0701368281   -0.8795038853    0.6655780543
H       -4.2603494555   -3.7193759014    4.5708119669
H       -5.7700380055   -1.7450883799    3.7297289657
16   

C        0.6093498407    0.8595986308    1.8087595453
C       -0.1966116408    1.3679640937    2.8015882499
C        0.3156177342   -0.3878234974    1.3048528342
C       -3.9107442012   -2.7632072439    4.1851138923
C       -4.7009432496   -1.8718595346    3.5336402990
C       -1.4582469152   -0.5563153344    2.7487684390
C       -2.6115783175   -1.3634286152    3.2290920036
N       -1.2267235711    0.6707997419    3.2647136100
N       -0.7156806128   -1.0860516851    1.7670537892
N       -2.5938726319   -2.4188595949    3.9857099661
O       -3.8989705965   -0.9695011493    2.9215367733
H        1.4489820274    1.4266118972    1.4328992933
H        0.0087226915    2.3498989176    3.2125787455
H        0.9325565332   -0.8074019678    0.5184406237
H       -4.2610793193   -3.6057509027    4.7698228668
H       -5.7838334422   -1.8803036624    3.5090416090
16   

C        0.6067748685    0.8532068939    1.8029942045
C       -0.1030395806    1.3290784472    2.8818838306
C        0.2133474017   -0.3392850689    1.2374109190
C       -3.9162741625   -2.6687277983    4.3136649844
C       -4.6906457510   -1.9550884109    3.4565170720
C       -1.4743504222   -0.5152003559    2.7788121827
C       -2.6236319271   -1.3123750311    3.2916249820
N       -1.1385598253    0.6542793554    3.3655478051
N       -0.8227560545   -1.0161177907    1.7205709239
N       -2.6128503108   -2.2452491045    4.1933172265
O       -3.8919226444   -1.0850126202    2.7953371305
H        1.4504952942    1.4023267849    1.4100982595
H        0.1839292203    2.2664045261    3.3448502987
H        0.7553466534   -0.7331080360    0.3852085028
H       -4.2682949718   -3.4449534104    4.9830363651
H       -5.7603835419   -2.0629656279    3.3247682456
16   

C        0.6080916106    0.8434699946    1.7979049659
C       -0.0053586004    1.2833663994    2.9489276729
C        0.1045610197   -0.2780718219    1.1769960182
C       -3.9503979809   -2.5419397257    4.4111970649
C       -4.6735093392   -2.0361033840    3.3793104722
C       -1.5082699164   -0.4512970737    2.7972532127
C       -2.6578079717   -1.2296652904    3.3307606956
N       -1.0561258188    0.6433922541    3.4465676847
N       -0.9461702170   -0.9213656854    1.6742781813
N       -2.6771100467   -2.0238054795    4.3582639729
O       -3.8735048569   -1.2008370376    2.6761094698
H        1.4640439870    1.3646555563    1.3935826842
H        0.3717775919    2.1628537899    3.4583777794
H        0.5716695041   -0.6438117424    0.2697177640
H       -4.3160900976   -3.2427323062    5.1525863621
H       -5.7091379911   -2.2624268180    3.1566549262
16   

C        0.6142322093    0.8340279694    1.7941071518
C        0.0740886951    1.2197152801    2.9997738236
C        0.0274323339   -0.2144080469    1.1212254465
C       -3.9972027090   -2.4274899441    4.4664131984
C       -4.6381609977   -2.1271499049    3.3080045589
C       -1.5277878163   -0.4203437647    2.7957815768
C       -2.6806488808   -1.1826799398    3.3308197095
N       -0.9870909175    0.5987772366    3.4988791606
N       -1.0335638144   -0.8391441317    1.6203392914
N       -2.7588060165   -1.8288773053    4.4575632802
O       -3.8218649388   -1.3409587685    2.5680318636
H        1.4786350168    1.3399200188    1.3883512516
H        0.5185641197    2.0399770283    3.5519338787
H        0.4369449250   -0.5378474949    0.1710733025
H       -4.3946342001   -3.0432620703    5.2647636314
H       -5.6290841155   -2.4600777395    3.0242061505
16   

C        0.6078624992    0.8419505288    1.7944522311
C        0.1303490505    1.1598354923    3.0451299598
C       -0.0417135292   -0.1376849420    1.0776461319
C       -4.0519364826   -2.3226848595    4.5103539911
C       -4.5952617433   -2.2175450514    3.2711368858
C       -1.5379093742   -0.4096308674    2.7990505095
C       -2.6924606036   -1.1631347926    3.3296527631
N       -0.9309988168    0.5401697279    3.5448580272
N       -1.1030646304   -0.7609637122    1.5777469089
N       -2.8478532445   -1.6583059102    4.5254558056
O       -3.7513527362   -1.4901403216    2.5028034637
H        1.4724029536    1.3469049409    1.3878374460
H        0.6248621709    1.9248974997    3.6328423166
H        0.3178201203   -0.4076248254    0.0912573708
H       -4.4928067091   -2.8489317717    5.3489116751
H       -5.5388156112   -2.6429812465    2.9517452018
16   

C        0.6097845294    0.8530767187    1.7843769894
C        0.1882087191    1.0971736455    3.0709160483
C       -0.0903131488   -0.0622658064    1.0315719717
C       -4.1019795539   -2.2345024422    4.5170244764
C       -4.5324476074   -2.3170692371    3.2330876169
C       -1.5265763238   -0.4181013507    2.7906759977
C       -2.6826881491   -1.1680852169    3.3132557480
N       -0.8674961483    0.4681797815    3.5704621850
N       -1.1464673258   -0.6942013396    1.5317398107
N       -2.9323388767   -1.5121183562    4.5473881972
O       -3.6505806333   -1.6523164748    2.4510654776
H        1.4697436119    1.3656345513    1.3775744855
H        0.7225156423    1.8110825218    3.6874557580
H        0.2240821138   -0.2734368858    0.0158694583
H       -4.5972552759   -2.6701146912    5.3769173866
H       -5.4253731242   -2.8270237703    2.8926134854
16   

C        0.6035092816    0.8600802203    1.7795687835
C        0.2377597786    1.0293170783    3.0947053190
C       -0.1437684698    0.0067034990    1.0001264080
C       -4.1593314070   -2.1558463888    4.5180608531
C       -4.4684536530   -2.4225251718    3.2246525716
C       -1.5155532864   -0.4385121097    2.7915777259
C       -2.6734916508   -1.1861795937    3.3086164109
N       -0.8090287106    0.3873822917    3.5962650019
N       -1.1915707643   -0.6373323437    1.5023516696
N       -3.0253022578   -1.3791905543    4.5518199329
O       -3.5440766820   -1.8220590244    2.4399827715
H        1.4562129058    1.3831764223    1.3709153504
H        0.8091290240    1.6942215149    3.7324423085
H        0.1253648587   -0.1443451993   -0.0390261430
H       -4.7144824453   -2.5003618779    5.3826883638
H       -5.3081061933   -3.0133842560    2.8794652499
16   

C        0.5898082175    0.8762614407    1.7727203794
C        0.2840121258    0.9680418116    3.1105954719
C       -0.2076047270    0.0878748428    0.9748307159
C       -4.2211154552   -2.0703376325    4.5082959371
C       -4.4054236145   -2.5124789687    3.2395693431
C       -1.5081915876   -0.4497870830    2.7943051359
C       -2.6678672084   -1.1944533766    3.3104140411
N       -0.7525630890    0.3131525360    3.6165125377
N       -1.2458837770   -0.5681688463    1.4812459901
N       -3.1237759062   -1.2424826400    4.5340625255
O       -3.4373308275   -1.9737801381    2.4629310253
H        1.4342988931    1.4097739634    1.3604946197
H        0.8948017276    1.5817907478    3.7629128369
H        0.0129490751   -0.0005467698   -0.0828191901
H       -4.8379544788   -2.3277225666    5.3613639307
H       -5.1902336778   -3.1801750897    2.9055973522
