32

C      2.85990   -2.02488   -3.48480
C      1.55626   -0.31041   -4.56299
C      3.64308   -2.17062   -4.63297
C      2.32340   -0.44223   -5.71322
C      1.80828   -1.10392   -3.43066
C      3.37273   -1.37971   -5.76285
C     -1.13071   -2.09040   -3.30271
C      0.93440   -1.00303   -2.20024
C      5.59807   -2.35794   -8.50087
C      5.11141   -2.39907   -7.06891
C     -0.10975   -2.12911   -2.17515
N     -0.87349   -2.03983   -0.83365
O      4.59323   -2.94562   -9.32255
O      4.05984   -1.43244   -6.92627
H      3.09387   -2.63673   -2.61473
H      0.75500    0.42562   -4.54506
H      4.45689   -2.88588   -4.63242
H      2.13500    0.17033   -6.58948
H     -1.66568   -1.13437   -3.32649
H     -0.60371   -2.19810   -4.25216
H     -1.85684   -2.90648   -3.22864
H      0.42026   -0.03376   -2.18211
H      1.55229   -1.06281   -1.29414
H      6.54079   -2.92212   -8.55502
H      5.80010   -1.31652   -8.78576
H      5.93306   -2.15517   -6.38365
H      4.73246   -3.40260   -6.84266
H      0.38910   -3.10106   -2.13909
H     -1.55740   -2.79969   -0.73155
H     -1.38776   -1.15227   -0.77106
H     -0.23187   -2.08022   -0.03211
H      4.85011   -2.84186  -10.25158
