15   

C        2.3735518359   -0.8682187565   -1.0115462200
C        1.3057966043   -1.3292230266   -0.2891817577
C        3.4829494026   -1.6362979520   -1.7090710822
C       -0.8572754983   -0.4581750420   -1.1956071093
C       -0.0969922014   -1.7006085788   -0.7412463602
H        2.7543767462    0.0793898259   -0.6454419228
H        1.2943009690   -0.9854542513    0.7397279420
H        4.3819944359   -1.0183531368   -1.7919984169
H        3.1610977902   -1.9269231397   -2.7132612981
H        3.7274287110   -2.5397571073   -1.1427147269
H       -0.3416436952    0.0202411603   -2.0339622867
H       -0.9343500441    0.2587937634   -0.3719101329
H       -1.8673364506   -0.7332213730   -1.5142194080
H       -0.6345857235   -2.1731955726    0.0870452007
H       -0.0376885754   -2.4217858243   -1.5626702759
15   

C        2.4056407375   -0.8120111949   -0.9165608482
C        1.3162227935   -1.2303407743   -0.2171538569
C        3.3824520756   -1.6530253005   -1.7135338488
C       -0.8744005500   -0.4707608972   -1.1469929017
C       -0.0284022049   -1.6789077656   -0.7560494253
H        2.9116264589    0.0285611921   -0.4534320596
H        1.2399762219   -0.8349697970    0.7902969806
H        3.3330586778   -1.3801552349   -2.7716406845
H        3.1386517288   -2.7149616434   -1.6127295850
H        4.4029974364   -1.4916185274   -1.3537930410
H       -0.3686607528    0.1133595860   -1.9221873008
H       -1.0448008593    0.1698882964   -0.2759095199
H       -1.8436352505   -0.8014911446   -1.5324831238
H       -0.5521476727   -2.2623442550    0.0078645211
H        0.1227307010   -2.3215902514   -1.6293557136
15   

C        2.4586566581   -0.7799995848   -0.8202286628
C        1.3375753500   -1.1406327736   -0.1543898557
C        3.3012202945   -1.6572509270   -1.7196575644
C       -0.8889095678   -0.4954329497   -1.0774669900
C        0.0474580380   -1.6562206776   -0.7552464257
H        3.0362799287   -0.0003302781   -0.3350075711
H        1.2096874933   -0.6934102927    0.8257690370
H        3.2221659622   -1.3146688896   -2.7554959316
H        2.9619197999   -2.6961962872   -1.6657628994
H        4.3504395385   -1.6153339338   -1.4125380612
H       -0.4183740668    0.1826058917   -1.7965256238
H       -1.1282332270    0.0641070786   -0.1677181718
H       -1.8196433115   -0.8744921940   -1.5104629134
H       -0.4374274298   -2.3381095415   -0.0494998584
H        0.2642413579   -2.2152470144   -1.6712679335
15   

C        2.5138212965   -0.7852841050   -0.7248321681
C        1.3526283772   -1.0710969314   -0.1035017083
C        3.2401527660   -1.6516475141   -1.7252620886
C       -0.8787256819   -0.5176975682   -1.0639888396
C        0.1027505786   -1.6384091936   -0.7347261905
H        3.1500033785   -0.0738022531   -0.2091065595
H        1.1980529314   -0.5966419986    0.8598416664
H        3.1347072148   -1.2309008138   -2.7294965831
H        2.8315544318   -2.6666931052   -1.7230050121
H        4.3037834904   -1.7044071609   -1.4746332116
H       -0.4253297563    0.1874113579   -1.7679351386
H       -1.1603710337    0.0218908986   -0.1543573798
H       -1.7829093783   -0.9337912931   -1.5187378922
H       -0.3641121706   -2.3482194001   -0.0445571020
H        0.3576825248   -2.1781579454   -1.6522571708
15   

C        2.5561628544   -0.8140512040   -0.6487534651
C        1.3571190314   -1.0128242777   -0.0739639107
C        3.1924969110   -1.6343942060   -1.7421561437
C       -0.8451437254   -0.5312426946   -1.1269043941
C        0.1331565492   -1.6246623341   -0.7090658792
H        3.2375441684   -0.1717057995   -0.1010541185
H        1.1934789003   -0.5263065359    0.8817979331
H        3.0576141436   -1.1385496244   -2.7078517389
H        2.7450402238   -2.6314975669   -1.7895959591
H        4.2637437108   -1.7466652675   -1.5507117136
H       -0.3769482037    0.1369008965   -1.8566823696
H       -1.1545777026    0.0559386167   -0.2565836634
H       -1.7343540990   -0.9786750872   -1.5814799225
H       -0.3502899924   -2.2957723255    0.0078912178
H        0.4119843127   -2.2158483751   -1.5865601271
15   

C        2.5950509397   -0.8605971049   -0.5973056442
C        1.3552621282   -0.9499445984   -0.0894228483
C        3.1754760651   -1.6369920841   -1.7499758663
C       -0.8785904169   -0.5409448493   -1.1028347247
C        0.1460719659   -1.6006631993   -0.7101709436
H        3.3039294977   -0.2763224921   -0.0202594708
H        1.1797311197   -0.4213663960    0.8415896085
H        3.0192421847   -1.0910964635   -2.6850023038
H        2.7075923555   -2.6224047296   -1.8301917865
H        4.2499417602   -1.7792605086   -1.6013238415
H       -0.4473326475    0.1486488935   -1.8354666741
H       -1.1950374013    0.0286176703   -0.2234383282
H       -1.7581088986   -1.0176421593   -1.5464577324
H       -0.3009474109   -2.2937540847    0.0095017153
H        0.4283747309   -2.1749072407   -1.5974143482
15   

C        2.6215789214   -0.9209637067   -0.5384793496
C        1.3553191364   -0.8997938485   -0.0946607957
C        3.1620882680   -1.6334934833   -1.7499135504
C       -0.8295596965   -0.5455147792   -1.2309722352
C        0.1518582677   -1.5814066917   -0.6922834593
H        3.3364029251   -0.3266787629    0.0207189780
H        1.1745453156   -0.3306695689    0.8110715380
H        4.0926206797   -1.1607747168   -2.0777337957
H        2.4456442571   -1.5902335474   -2.5754348847
H        3.3656879573   -2.6809177058   -1.5086765598
H       -0.3559813231    0.0545750830   -2.0142409061
H       -1.1605336948    0.1189305067   -0.4265228877
H       -1.7063407089   -1.0458007611   -1.6535800517
H       -0.3411641803   -2.1805511685    0.0798068676
H        0.4504920001   -2.2598681596   -1.4969431082
15   

C        2.6382275601   -0.9874289253   -0.4970521143
C        1.3537414163   -0.8493666195   -0.1314755761
C        3.1723854545   -1.6360527949   -1.7471626238
C       -0.8576544120   -0.5480902506   -1.2345695886
C        0.1500260188   -1.5587287161   -0.6965001268
H        3.3644631159   -0.4463219225    0.1001599778
H        1.1705984960   -0.2399308772    0.7471715922
H        4.1017326879   -1.1472968776   -2.0542394456
H        2.4520844542   -1.5501042662   -2.5660789304
H        3.3761982754   -2.6947379954   -1.5617593724
H       -0.4083372789    0.0453753678   -2.0369258588
H       -1.1848147826    0.1250658800   -0.4358446400
H       -1.7337353811   -1.0697625118   -1.6320919040
H       -0.3202226875   -2.1512790080    0.0946611751
H        0.4453763984   -2.2465273217   -1.4945503519
15   

C        2.6493203642   -1.0582482440   -0.4696822067
C        1.3591320631   -0.8036372281   -0.1897052184
C        3.2062787545   -1.6417884333   -1.7433231483
C       -0.9065927966   -0.5466122604   -1.1970116668
C        0.1462692589   -1.5359306173   -0.7078342462
H        3.3754957788   -0.5662049373    0.1686577165
H        1.1769303150   -0.1409645043    0.6497670953
H        4.1432766946   -1.1419010248   -2.0060977439
H        2.5010098434   -1.5098712169   -2.5693435953
H        3.4018889525   -2.7099298816   -1.6109994387
H       -0.5054167022    0.0605506174   -2.0145246539
H       -1.2157608737    0.1151615745   -0.3818517678
H       -1.7860493517   -1.0870867026   -1.5605704147
H       -0.2763595171   -2.1440067525    0.0982891593
H        0.4252728338   -2.2104865365   -1.5231655817
15   

C        2.6547186892   -1.1314100546   -0.4575390815
C        1.3706826846   -0.7701340745   -0.2670733459
C        3.2662222370   -1.6460291784   -1.7389919245
C       -0.9574218331   -0.5447883693   -1.1445960357
C        0.1383665772   -1.5181182867   -0.7216335366
H        3.3674170938   -0.6840532285    0.2272217077
H        1.1955287896   -0.0467805016    0.5223639320
H        4.2125886562   -1.1337343660   -1.9361597188
H        2.5929346238   -1.4701956403   -2.5834797257
H        3.4567608527   -2.7200970419   -1.6569965397
H       -0.6126188215    0.0741334750   -1.9788925906
H       -1.2332820222    0.1064764177   -0.3093639503
H       -1.8456322510   -1.0989620921   -1.4635520250
H       -0.2273292661   -2.1412667429    0.1006728872
H        0.3863825555   -2.1783227579   -1.5587857920
15   

C        2.6322763615   -1.2128152787   -0.4682338122
C        1.3606485415   -0.7654941447   -0.3585020237
C        3.3354913951   -1.6467012173   -1.7357276380
C       -1.0253488041   -0.5335293519   -1.0825656334
C        0.0932923599   -1.5084043168   -0.7276899144
H        3.3149257762   -0.8077284108    0.2713289579
H        1.2062403377    0.0171469249    0.3769387344
H        4.2890185023   -1.1200434350   -1.8375922359
H        2.7170082904   -1.4232849665   -2.6104077253
H        3.5276320956   -2.7231776974   -1.7063577195
H       -0.7334474950    0.0809997001   -1.9400179639
H       -1.2456626388    0.1217703588   -0.2341751100
H       -1.9334363503   -1.0866299534   -1.3418436957
H       -0.2188507756   -2.1308172808    0.1169621115
H        0.2875117254   -2.1682152660   -1.5794524642
15   

C        2.6108296485   -1.2923018076   -0.5147432211
C        1.3471520620   -0.7909623224   -0.4775920429
C        3.4428644883   -1.6432349386   -1.7320459790
C       -1.0947082145   -0.5178061205   -0.9959408887
C        0.0363365049   -1.5098985856   -0.7402647845
H        3.2412702960   -0.9162576594    0.2842185435
H        1.2234350839    0.0603598008    0.1837115259
H        4.3928452223   -1.1009317083   -1.7110589819
H        2.9064318839   -1.3760153820   -2.6475692067
H        3.6489917877   -2.7173865198   -1.7464013817
H       -0.8666447283    0.0969760085   -1.8724206790
H       -1.2350726784    0.1360292216   -0.1296970526
H       -2.0286947333   -1.0572550111   -1.1814640654
H       -0.2115256449   -2.1367532984    0.1222296210
H        0.1494366396   -2.1635603500   -1.6111694880
15   

C        2.5863756649   -1.3695261418   -0.5843765006
C        1.3240329274   -0.8417411049   -0.6107319495
C        3.5568764243   -1.6376178147   -1.7219315120
C       -1.1540898644   -0.4992600605   -0.9074759958
C       -0.0303147194   -1.5212723827   -0.7560024768
H        3.1357738360   -1.1071080366    0.3136620546
H        1.2375865128    0.0725286578   -0.0328654158
H        3.4472922783   -0.8730541362   -2.4966700305
H        3.3529488048   -2.6174060279   -2.1633788176
H        4.5879383386   -1.6233684232   -1.3562316490
H       -0.9884408648    0.1138185465   -1.7990934445
H       -1.2012543073    0.1535614814   -0.0304963801
H       -2.1142707187   -1.0139339665   -1.0118011471
H       -0.2163154911   -2.1498872105    0.1206432271
H       -0.0133247034   -2.1696639134   -1.6378662590
