18

C      0.86913   -2.02149    2.94382
C      1.41500   -1.32263    1.86735
C      0.05650    0.61307    2.44731
C     -0.45786   -0.09275    3.53456
C     -0.06967   -1.41796    3.77931
C      0.99123   -0.01686    1.63628
C     -1.76121   -2.78328    4.71221
N     -1.39380    0.63066    4.41683
O     -2.12721    1.46563    3.88025
O     -1.35554    0.37773    5.62051
O     -0.55742   -2.15090    4.85697
F      1.50820    0.66492    0.59291
F     -2.73246   -1.93271    4.30544
F     -2.09046   -3.26791    5.91067
Cl    -1.71334   -4.14701    3.52630
H      1.16160   -3.04556    3.14793
H      2.15058   -1.77745    1.21190
H     -0.26358    1.62994    2.25150
