49

C     -6.75399    3.68203   -3.15347
C     -5.78422    1.48301   -3.41576
C     -2.90585   -2.28238   -0.16159
C     -4.65352   -1.79662   -4.62449
C     -3.53993   -2.94915   -2.56104
C     -5.67096   -0.88635   -3.93681
C     -0.56214   -1.62499    0.48413
C     -2.35109   -1.66493    2.13548
C     -0.36634   -0.13142    0.75194
C     -2.13879   -0.17127    2.38272
C     -3.93557    0.12789   -2.52806
C     -2.42375   -2.47763   -1.61588
C     -3.38957   -2.03210   -3.78848
C     -2.84044   -0.75215   -3.15093
C     -7.11576    5.10347   -2.85528
C     -0.50901    1.61048    2.41580
N     -7.50877    2.85555   -3.80857
N     -6.97448    1.59802   -3.95634
N     -5.01137    0.35267   -3.49322
N     -1.94541   -2.01031    0.77077
N     -0.74574    0.20110    2.12636
O     -4.10318   -2.37672    0.12877
O     -1.94138   -1.20522   -2.12916
S     -5.22517    2.96501   -2.62653
H     -5.13077   -2.75366   -4.86357
H     -4.36885   -1.33404   -5.57640
H     -3.43003   -4.00503   -2.81927
H     -4.50619   -2.82329   -2.07004
H     -6.47187   -0.61552   -4.62289
H     -6.13238   -1.38197   -3.06990
H     -0.30170   -1.84483   -0.54807
H      0.09725   -2.20170    1.14391
H     -1.73746   -2.24359    2.83566
H     -3.39783   -1.93680    2.26248
H      0.68978    0.12293    0.60821
H     -0.95620    0.43801    0.00968
H     -2.83906    0.40071    1.74351
H     -2.37792    0.06011    3.42651
H     -4.32898   -0.34758   -1.61886
H     -3.48761    1.07937   -2.23526
H     -1.57383   -3.16762   -1.63170
H     -2.60545   -2.43894   -4.43717
H     -2.25425   -0.15834   -3.85795
H     -7.13620    5.29379   -1.77696
H     -6.40222    5.80137   -3.30619
H     -8.10813    5.29943   -3.26655
H      0.54929    1.84606    2.26356
H     -0.75598    1.81873    3.46179
H     -1.10797    2.28862    1.77877
