37

C      3.70346   -1.69869    1.79899
C      2.64590   -2.58672    1.80519
C      0.68402    6.40680   -0.85844
C      2.19781    0.11737    1.11883
C      3.45211   -0.35096    1.42548
C     -0.19555   -0.65067    0.81102
C      1.51578    5.33488   -0.51273
C     -0.69336    6.16392   -0.94516
C     -0.74960   -1.92515    1.01426
C      1.34676   -2.14653    1.47071
C     -0.30842    3.99130   -0.37178
C     -0.83168    0.56847    0.39741
C      3.00995    5.48351   -0.41681
C     -1.67673    7.24232   -1.31446
C     -2.17757   -2.34415    0.84614
N      0.19611   -2.82459    1.40044
N      1.01994    4.11151   -0.26558
N     -1.19783    4.94803   -0.69994
N     -0.18284    1.67847    0.25604
N      1.15943   -0.79395    1.11553
N     -0.88997    2.76069   -0.13917
I      4.99145    1.21637    2.16454
H      4.70596   -2.02774    2.04933
H      2.78055   -3.63172    2.06463
H      1.09282    7.39207   -1.05668
H      1.94637    1.14178    0.87410
H     -1.90937    0.50139    0.20520
H      3.36316    5.10132    0.54532
H      3.49194    4.88420   -1.19625
H      3.32230    6.52461   -0.52805
H     -2.22280    6.95635   -2.21906
H     -2.41555    7.36433   -0.51616
H     -1.18092    8.20019   -1.48830
H     -2.24078   -3.18826    0.15240
H     -2.59043   -2.67913    1.80350
H     -2.80614   -1.53599    0.46557
H     -1.90172    2.72134   -0.25724
