49

C      0.63350    6.29980   -4.22879
C     -0.22005    4.26101   -3.24694
C     -2.14309   -0.56782   -0.12977
C     -2.85429    1.65742   -2.73454
C     -2.23523   -0.85251   -2.67090
C     -2.34375    3.03284   -3.17493
C     -3.76900   -1.10485    1.62516
C     -3.32612   -2.80553   -0.06712
C     -5.26163   -1.21483    1.32141
C     -4.82941   -2.89466   -0.34282
C     -0.32212    2.18480   -1.94048
C     -1.37920   -1.01632   -1.39538
C     -1.87582    0.55950   -3.17288
C     -0.46039    0.79952   -2.58480
C      0.90421    7.58738   -4.94260
C     -7.02885   -2.71514    0.63279
N      1.51318    5.64407   -3.53715
N      1.04636    4.48642   -2.96779
N     -0.93087    3.18309   -2.82675
N     -2.98277   -1.48236    0.44928
N     -5.59567   -2.56232    0.85507
O     -2.00861    0.57221    0.31936
O     -0.22053   -0.22953   -1.60747
S     -0.95579    5.51685   -4.25738
H     -2.98429    1.63554   -1.65013
H     -3.83890    1.49241   -3.18505
H     -1.93337   -1.60531   -3.40519
H     -3.30693   -0.97042   -2.48802
H     -2.45502    3.13194   -4.26407
H     -2.94439    3.82918   -2.71205
H     -3.49804   -0.08681    1.90107
H     -3.51330   -1.78068    2.45072
H     -3.05381   -3.56125    0.68090
H     -2.77789   -3.02351   -0.98132
H     -5.83147   -1.00786    2.23350
H     -5.53631   -0.44626    0.57255
H     -5.08149   -2.22215   -1.18782
H     -5.07654   -3.91732   -0.64869
H     -0.81222    2.17619   -0.96349
H      0.72450    2.44748   -1.80185
H     -1.02982   -2.04420   -1.26648
H     -1.82229    0.56500   -4.26645
H      0.30262    0.68498   -3.36236
H      0.73479    7.49291   -6.02076
H      0.26357    8.39493   -4.57190
H      1.94782    7.86103   -4.77337
H     -7.56904   -2.50714    1.56161
H     -7.24905   -3.74552    0.33575
H     -7.41860   -2.03881   -0.15134
