41

C      2.02842   -7.28048    6.36851
C      3.42075   -7.44910    6.23153
C      1.92394   -1.66445   -0.24919
C      1.29208   -6.52487    5.45198
C      4.12314   -6.86696    5.17009
C      0.93168   -0.70401   -0.43868
C     -0.07996   -2.13172   -2.12686
C      1.94517   -2.86644   -0.97835
C      1.97805   -5.93231    4.38515
C      3.38049   -6.10951    4.26350
C      0.93244   -3.07997   -1.93465
C     -0.07051   -0.95828   -1.37790
C      2.57385   -4.86957    2.62087
C      3.01966   -3.86987   -0.73372
C      3.87166   -4.32441   -1.89410
C      3.10887   -5.22019   -2.88393
C      1.93026   -4.53661   -3.56608
C      5.10731   -5.19561    2.64830
N      1.50330   -5.15583    3.33094
N      3.28490   -4.39417    0.41423
N      3.74720   -5.39417    3.12264
N      2.52917   -4.03391    1.50969
O      0.83868   -4.23574   -2.67060
Br    -1.45505    0.33665   -1.65180
H      1.51850   -7.75147    7.20477
H      3.96081   -8.04559    6.96184
H      2.70152   -1.48467    0.48787
H      0.21830   -6.39609    5.55418
H      5.19548   -7.00859    5.06521
H      0.93430    0.21683    0.13437
H     -0.85411   -2.33531   -2.85861
H      4.25874   -3.44515   -2.42622
H      4.72410   -4.87473   -1.48771
H      3.80000   -5.55117   -3.66946
H      2.75002   -6.11704   -2.36742
H      2.24627   -3.61257   -4.06770
H      1.49185   -5.20043   -4.31516
H      5.40194   -5.97429    1.93852
H      5.18878   -4.22822    2.15397
H      5.78176   -5.21244    3.50806
H      1.58082   -3.69697    1.33853
