16   

C        5.0202476064    1.6401473800    0.1071843993
C        5.3180357558    0.5088490475    0.8043057755
C        3.3530568224    0.2730439071   -0.2439690917
C        2.0817715281   -0.3296392602   -0.7324156873
C        0.4484410009   -2.1483164491   -0.3783320105
N        3.8079575174    1.4804326344   -0.5366910435
N        4.2730221828   -0.3802504130    0.5944228699
N        1.6820491508   -1.4600941398   -0.0278889350
O        1.4027930697    0.0992494085   -1.6584578087
H        5.6395103823    2.5287045694    0.0586350531
H        6.2145047719    0.3527227584    1.3934313485
H        0.2815673914   -2.9939364224    0.2957775109
H        0.5047710291   -2.5284588313   -1.4038523626
H       -0.4041591719   -1.4653024285   -0.2981584590
H        4.2229201276   -1.3464926530    0.9007275245
H        2.1569612300   -1.6884173271    0.8341389425
16   

C        4.9861854374    1.6555190395    0.1830416175
C        5.3487584841    0.4765549513    0.7620580974
C        3.3945584653    0.2445907742   -0.3003654320
C        2.1386443816   -0.3764598304   -0.8111455777
C        0.4182590466   -2.0829135530   -0.3433880438
N        3.7759467857    1.4996846652   -0.4669464992
N        4.3494486300   -0.4407350394    0.4674577235
N        1.6634747682   -1.4061600230   -0.0130035088
O        1.5204499096   -0.0155310244   -1.8059893904
H        5.5583273474    2.5755769718    0.2222551540
H        6.2575163645    0.3089165269    1.3287967484
H        0.1944271614   -2.8501961127    0.4039813245
H        0.4978546135   -2.5663825022   -1.3227986883
H       -0.4097019749   -1.3661414153   -0.3662898391
H        4.3446142056   -1.4356614211    0.6721149100
H        2.0850583572   -1.5385376717    0.8971057005
16   

C        4.9502133402    1.6578515763    0.2657443282
C        5.3902202257    0.4535344562    0.7289022789
C        3.4457440049    0.2042939721   -0.3405223938
C        2.2076256887   -0.4436321883   -0.8725694117
C        0.3995496845   -2.0286098273   -0.3282861012
N        3.7409106592    1.4916661625   -0.3845594771
N        4.4434854083   -0.4912294732    0.3570260375
N        1.6507981480   -1.3610274534   -0.0028496023
O        1.6643670357   -0.1681087051   -1.9359970071
H        5.4670399875    2.6030790777    0.3875672190
H        6.3143493435    0.2887278364    1.2711055529
H        0.1247683135   -2.7264907369    0.4685102056
H        0.5017428313   -2.5925818405   -1.2614653254
H       -0.4046853227   -1.2938292513   -0.4422245110
H        4.4875818327   -1.4991740782    0.4794209191
H        2.0270104793   -1.4126337051    0.9358821823
16   

C        4.8545267823    1.6507165684    0.3420274387
C        5.3947565152    0.4463458922    0.6846940411
C        3.4357236997    0.1489168161   -0.3386515308
C        2.2185095525   -0.5440366870   -0.8785176946
C        0.3433414159   -2.0213249153   -0.2751240601
N        3.6334666034    1.4534098987   -0.2780170278
N        4.5012548277   -0.5299004784    0.2651161959
N        1.5827692643   -1.3330718633    0.0515649966
O        1.7759535327   -0.4091473980   -2.0132869689
H        5.3097502521    2.6170599745    0.5274213798
H        6.3487825977    0.3031591944    1.1791559575
H        0.0234652861   -2.6433884953    0.5664109057
H        0.4858487235   -2.6682417166   -1.1472101932
H       -0.4469963191   -1.2956252952   -0.4947974128
H        4.6096896939   -1.5397575104    0.3090108175
H        1.9042688332   -1.2817802900    1.0111223300
16   

C        4.7886429336    1.6498544048    0.4711243837
C        5.4391546116    0.4656960902    0.6593078586
C        3.4417168515    0.1098057568   -0.2591196885
C        2.2624759378   -0.6234205979   -0.8437305193
C        0.3214988043   -2.0322486233   -0.2965688957
N        3.5462324206    1.4151692403   -0.0926296821
N        4.5935742593   -0.5355405397    0.2010122058
N        1.5021653305   -1.2756062150    0.0902469727
O        2.0410947065   -0.7342314656   -2.0440218039
H        5.1838444636    2.6278514326    0.7216471123
H        6.4335382998    0.3528754447    1.0759180108
H       -0.0944248240   -2.5524501867    0.5717002534
H        0.5779436293   -2.7793198085   -1.0550784044
H       -0.4425792672   -1.3601107714   -0.7013909448
H        4.7767092740   -1.5333238920    0.1315606709
H        1.6964901867   -1.0839264537    1.0666485098
16   

C        4.7727175179    1.6642557898    0.5605647728
C        5.5259019218    0.5273152575    0.5928176147
C        3.4829265686    0.0754595236   -0.1677803410
C        2.3526936735   -0.6885071675   -0.8087449715
C        0.3262443407   -2.0130202744   -0.3508782802
N        3.5081998981    1.3739116539    0.0754409548
N        4.7216679696   -0.5012623221    0.1212258552
N        1.4330520626   -1.1717456771    0.0785593208
O        2.3981742772   -1.1126412131   -1.9582875107
H        5.1139066485    2.6491105910    0.8589993703
H        6.5595180732    0.4640420172    0.9131198994
H       -0.1486454231   -2.4821326320    0.5161864880
H        0.6799591030   -2.8074251932   -1.0164399314
H       -0.4209708037   -1.4115363472   -0.8791567489
H        4.9742931153   -1.4671032017   -0.0736082593
H        1.4716715976   -0.8080931968    1.0246599855
16   

C        4.7297629763    1.6354184944    0.6855141385
C        5.5691685203    0.5677635088    0.5579055878
C        3.5089765870    0.0044672064   -0.0735871949
C        2.4153475424   -0.7846518920   -0.7339572275
C        0.2976880548   -1.9829356607   -0.3348638408
N        3.4558559847    1.2816662283    0.2708790863
N        4.8104372972   -0.4824905785    0.0597719153
N        1.3902791884   -1.1263463176    0.1003718062
O        2.5765262869   -1.3747382786   -1.7973248381
H        5.0176152140    2.6175733796    1.0431677312
H        6.6279331198    0.5651054996    0.7900733469
H       -0.2638927023   -2.3457900772    0.5313399292
H        0.6799185696   -2.8520789671   -0.8803289025
H       -0.3819543915   -1.4236566742   -0.9863473044
H        5.1171032668   -1.4017367388   -0.2507362457
H        1.3513190340   -0.6429549313    0.9918577904
16   

C        4.6986895194    1.5780812511    0.7684714106
C        5.5951048485    0.5841153976    0.5051436863
C        3.5371066733   -0.0768055277   -0.0343336599
C        2.4655950417   -0.8932826960   -0.6819451928
C        0.2638444445   -1.9435658151   -0.3159709986
N        3.4245249438    1.1675542884    0.4095093683
N        4.8737377549   -0.4778914249   -0.0225249660
N        1.3677143191   -1.0938773080    0.1031564785
O        2.6726790919   -1.5929069776   -1.6686610653
H        4.9462085925    2.5490883366    1.1823360506
H        6.6652025459    0.6378376802    0.6691211438
H       -0.3542255256   -2.2100055713    0.5467697995
H        0.6361330116   -2.8699764344   -0.7656432798
H       -0.3586713202   -1.4175578667   -1.0473051327
H        5.2132414468   -1.3526812493   -0.4170816490
H        1.3001831965   -0.5138876121    0.9340175399
16   

C        4.6763924657    1.5234281129    0.8343507456
C        5.6090419149    0.6081811945    0.4423729789
C        3.5610353481   -0.1427786646   -0.0108016826
C        2.5035071606   -0.9922977241   -0.6243145789
C        0.2343894965   -1.9000191593   -0.2871966584
N        3.4060102789    1.0583554817    0.5317606062
N        4.9161667061   -0.4593528444   -0.1115549958
N        1.3555431158   -1.0620168944    0.1079048631
O        2.7267735833   -1.7706132168   -1.5467758934
H        4.8950974638    2.4773255097    1.3008852746
H        6.6829310310    0.7168914788    0.5415879221
H       -0.4231611753   -2.0766062226    0.5694054348
H        0.5852475079   -2.8714562940   -0.6509476000
H       -0.3406731122   -1.4096609376   -1.0795441913
H        5.2754531213   -1.2915847962   -0.5752596769
H        1.2843522983   -0.4070035724    0.8816272242
16   

C        4.6660900423    1.4856451399    0.8907269084
C        5.6129698637    0.6490014516    0.3761310533
C        3.5769968610   -0.1703082301   -0.0072538154
C        2.5293508529   -1.0505446598   -0.5840817702
C        0.2050849588   -1.8263287374   -0.2982710740
N        3.4014719723    0.9772487981    0.6364891848
N        4.9360387769   -0.4116281930   -0.2097367574
N        1.3415912743   -1.0011233169    0.0788877280
O        2.7597402807   -1.8855317512   -1.4538905645
H        4.8702448246    2.4138757969    1.4123764503
H        6.6849442225    0.8038308484    0.4187972713
H       -0.4829534945   -1.9268595150    0.5466274137
H        0.5334420462   -2.8300334319   -0.5880782492
H       -0.3289889980   -1.3702837969   -1.1382713995
H        5.3025840522   -1.2027307111   -0.7359153041
H        1.2753972754   -0.2944794424    0.8071692990
16   

C        4.6710269170    1.4244594237    0.8135019763
C        5.6051638979    0.6301317656    0.2153106880
C        3.5719331028   -0.2383075699   -0.0590719385
C        2.5224963279   -1.1632207415   -0.5525045880
C        0.1494500526   -1.7944142247   -0.2922657455
N        3.4075611273    0.8824392189    0.6328224804
N        4.9213792673   -0.4360193790   -0.3521581478
N        1.3064237372   -0.9701807502    0.0213162391
O        2.7491974110   -2.0807336156   -1.3359328243
H        4.8830186574    2.3444211306    1.3465514390
H        6.6730576322    0.8147306645    0.1937707472
H       -0.4982282938   -1.8808911882    0.5854808762
H        0.4554357130   -2.8049526926   -0.5830412894
H       -0.4199393465   -1.3478312679   -1.1137268266
H        5.2765850510   -1.2160511638   -0.9022932914
H        1.2564592502   -0.1981437233    0.6820897883
16   

C        4.6952778633    1.4614793365    0.8046232693
C        5.6166132779    0.7359333590    0.1074236587
C        3.5961947305   -0.1768895304   -0.1130692496
C        2.5577950162   -1.1330819576   -0.5670933840
C        0.1465699182   -1.6661181967   -0.4126901941
N        3.4404956645    0.8883192009    0.6633734561
N        4.9330740736   -0.3158701163   -0.4864279707
N        1.3119505624   -0.8476541869   -0.1107331554
O        2.8009806270   -2.0931339245   -1.2924757460
H        4.9106425980    2.3528741475    1.3829358986
H        6.6762383947    0.9544384044    0.0411572097
H       -0.4049485570   -1.8854660887    0.5067408427
H        0.4359026561   -2.6212953301   -0.8634253471
H       -0.5121277009   -1.1403780851   -1.1110050452
H        5.2829853718   -1.0639533025   -1.0824890254
H        1.2562558261   -0.0387152788    0.5042485416
16   

C        4.6689114650    1.4313235905    0.8024184120
C        5.5721105898    0.7449479014    0.0444472874
C        3.5596424431   -0.1961683269   -0.1222476130
C        2.5285891396   -1.1854084028   -0.5204617882
C        0.0965376345   -1.6102867950   -0.5654100364
N        3.4205677424    0.8363842567    0.7001405841
N        4.8828190003   -0.3021357279   -0.5511649833
N        1.2586465261   -0.8040161030   -0.2252516832
O        2.7861542135   -2.2109256210   -1.1441271614
H        4.8933414544    2.3079813828    1.3995063856
H        6.6244546122    0.9838983229   -0.0575941290
H       -0.1533256098   -2.2799828317    0.2637552692
H        0.2855118687   -2.2119611279   -1.4607549931
H       -0.7611568047   -0.9630921682   -0.7725431498
H        5.2261205386   -1.0407274772   -1.1626353086
H        1.1752384358    0.0849381948    0.2625616809
16   

C        4.6549741939    1.5239310929    0.8331964795
C        5.5412400867    0.8990569051    0.0052906746
C        3.5629827459   -0.1221022534   -0.0793840855
C        2.5629940109   -1.1690732804   -0.4095087915
C        0.1453279618   -1.6182892240   -0.6065868817
N        3.4304608704    0.8752787027    0.7865086100
N        4.8641932530   -0.1613063302   -0.5809255121
N        1.2717681472   -0.7578005937   -0.2817001897
O        2.8608196690   -2.2400093951   -0.9303213863
H        4.8763506780    2.3920821960    1.4437009277
H        6.5756288388    1.1852861151   -0.1464799537
H       -0.0648920985   -2.2945849900    0.2284245354
H        0.3566298025   -2.2128649418   -1.5016069580
H       -0.7444860010   -1.0132404304   -0.8053426695
H        5.2101271842   -0.8804809796   -1.2135233586
H        1.1440872262    0.1639650086    0.1283815680
16   

C        4.6859601059    1.4894012197    0.8837853593
C        5.5132261844    0.9424507753   -0.0530361252
C        3.5535548279   -0.1174133853   -0.0491424296
C        2.5590459430   -1.1873761687   -0.3365048661
C        0.1574083088   -1.6317642347   -0.6845846402
N        3.4760627884    0.8128176236    0.8941469796
N        4.8115601093   -0.0944861738   -0.6521752117
N        1.2668597236   -0.7527567114   -0.3502165672
O        2.8736454454   -2.2851886452   -0.7863856196
H        4.9399111390    2.3202005411    1.5323899716
H        6.5267321555    1.2622675220   -0.2661611249
H       -0.0980756606   -2.2587896697    0.1759557853
H        0.4148638550   -2.2767733086   -1.5312168799
H       -0.7197787839   -1.0403318604   -0.9640011014
H        5.1272362568   -0.7743804503   -1.3412406125
H        1.1136394896    0.1891982336   -0.0009296695
16   

C        4.7337534516    1.4549373475    0.9497603401
C        5.4795390870    0.9874697735   -0.0924238389
C        3.5484611130   -0.1172586434    0.0247179265
C        2.5552748425   -1.2076892152   -0.2175901739
C        0.1852251302   -1.6695569346   -0.7218525839
N        3.5443931865    0.7478720267    1.0295240666
N        4.7449807795   -0.0285497085   -0.6880677631
N        1.2740826509   -0.7672921664   -0.3805686888
O        2.8848984783   -2.3359093327   -0.5703419233
H        5.0316972213    2.2497717408    1.6242024691
H        6.4630653539    1.3438616871   -0.3762277382
H       -0.1248747202   -2.2358459315    0.1625764447
H        0.4931461786   -2.3710587445   -1.5042338327
H       -0.6717734510   -1.1005626356   -1.0948421913
H        5.0165275337   -0.6658739879   -1.4339062846
H        1.0964247235    0.1978656457   -0.1194429147
16   

C        4.7946662542    1.4075717452    1.0216907943
C        5.4382793353    1.0242422912   -0.1183057553
C        3.5459282549   -0.1260865222    0.1188487462
C        2.5397718985   -1.2212609754   -0.0886865250
C        0.2151523579   -1.6959530566   -0.7598313420
N        3.6298413600    0.6723063237    1.1715854794
N        4.6625877835    0.0330105265   -0.7036314544
N        1.2903313059   -0.7783933421   -0.4148611470
O        2.8647614803   -2.3843380783   -0.3044762564
H        5.1474563615    2.1629247320    1.7147883654
H        6.3835625393    1.4183834096   -0.4732476934
H       -0.1639255815   -2.1871854759    0.1424593647
H        0.5672828817   -2.4600487001   -1.4606908983
H       -0.6060339235   -1.1513747569   -1.2356810327
H        4.8733952511   -0.5513131810   -1.5096084468
H        1.1072225870    0.2091025357   -0.2690702855
16   

C        4.8728798614    1.3131088850    1.0789617419
C        5.3811161904    1.0324557007   -0.1554983215
C        3.5580667180   -0.1884563501    0.2217104678
C        2.5165119499   -1.2627034616    0.0398764768
C        0.2412218624   -1.7171028309   -0.7889954412
N        3.7463317865    0.5402931567    1.3076440882
N        4.5591614602    0.0656695581   -0.7184177492
N        1.3287912553   -0.8083404739   -0.4595645859
O        2.7828749622   -2.4595382356    0.0332992117
H        5.2921028644    2.0252739895    1.7807346234
H        6.2690831412    1.4784384966   -0.5885958808
H       -0.2266487818   -2.0922113434    0.1272918557
H        0.6103893813   -2.5658960155   -1.3741714138
H       -0.5163439434   -1.1977834597   -1.3837975801
H        4.6805643392   -0.4415268590   -1.5917112511
H        1.1843754138    0.1956437168   -0.4606307460
16   

C        4.9088913428    1.2293860481    1.0922193236
C        5.2709036378    1.0536183248   -0.2111851383
C        3.5488199585   -0.2649533940    0.2944957795
C        2.4515522293   -1.2848950335    0.1341041782
C        0.2195609821   -1.6764566053   -0.8232255881
N        3.8334757394    0.4108532980    1.3921617092
N        4.4110098722    0.1022564911   -0.7431713948
N        1.3734538840   -0.8261212921   -0.5750923971
O        2.5324665916   -2.4526355485    0.4971786225
H        5.3906474073    1.9049524239    1.7900339256
H        6.0879650590    1.5606915701   -0.7115637908
H       -0.2840356458   -1.9151704576    0.1195739565
H        0.5287433031   -2.6080880361   -1.3087004224
H       -0.4911522844   -1.1657428200   -1.4801512554
H        4.4283251943   -0.3159979996   -1.6698303717
H        1.3389363406    0.1657170770   -0.7822835848
16   

C        5.0027969516    1.1251522773    1.1192750832
C        5.2175187525    1.0620328745   -0.2259896747
C        3.5691913204   -0.3222545370    0.3569981397
C        2.4314409051   -1.2928350116    0.2278915038
C        0.2355045425   -1.6485389655   -0.8276863529
N        3.9686570098    0.2737745894    1.4658413354
N        4.3069814526    0.1468660145   -0.7367208215
N        1.4489899161   -0.8691132509   -0.6365441346
O        2.3280804920   -2.3443290022    0.8487256316
H        5.5557921835    1.7478660505    1.8134234764
H        5.9710829002    1.6208100871   -0.7691930951
H       -0.3311125267   -1.7038607163    0.1079513848
H        0.4830748166   -2.6638189811   -1.1551839781
H       -0.3952080053   -1.1843723198   -1.5920271626
H        4.2226195492   -0.1866485208   -1.6933542908
H        1.5152212198    0.0751378772   -0.9981306239
16   

C        5.1143274654    1.0741171115    1.1294263926
C        5.2033104743    1.1018786214   -0.2306442984
C        3.5879986625   -0.3018244100    0.4075761471
C        2.4358386728   -1.2509323584    0.3205404692
C        0.3008195228   -1.6882422414   -0.8319916345
N        4.1040013460    0.2101701810    1.5112074467
N        4.2351435773    0.2330392773   -0.7153529669
N        1.5228885528   -0.9171695976   -0.6611770699
O        2.2413610779   -2.2006246540    1.0703249327
H        5.7385554552    1.6418854782    1.8101500198
H        5.9128919305    1.6896465035   -0.8017690909
H       -0.3050272849   -1.6469365618    0.0795639983
H        0.5395620475   -2.7337142468   -1.0540561673
H       -0.2881614121   -1.2848930377   -1.6613500483
H        4.0700353834   -0.0402886397   -1.6801902135
H        1.6295694075   -0.0220942634   -1.1225655425
16   

C        5.1720352544    1.0055686752    1.1436784004
C        5.1603077855    1.1350277482   -0.2127059475
C        3.5382372493   -0.2581225233    0.4426320914
C        2.3686705432   -1.1811280171    0.3785961021
C        0.3147052404   -1.7215082108   -0.8782725129
N        4.1632910409    0.1452717391    1.5358146059
N        4.1267139871    0.3374684151   -0.6843132637
N        1.5305477178   -0.9419754838   -0.7000397653
O        2.1020145832   -2.0492011722    1.2016949330
H        5.8664101938    1.4984182358    1.8147472778
H        5.8475942495    1.7416505658   -0.7913096677
H       -0.3404738928   -1.6086698378   -0.0077474064
H        0.5591409864   -2.7814767182   -1.0049251222
H       -0.2255734363   -1.3824560097   -1.7673882400
H        3.8950488003    0.1354202540   -1.6524528560
H        1.6723620034   -0.0962039423   -1.2368028023
16   

C        5.0834913390    1.3611883254   -0.2698334920
C        5.2529347738    0.4072230048    0.6871292922
C        3.2538098348    0.1682860226   -0.2934775001
C        1.8966973811   -0.3547988696   -0.6143295699
C        0.3674710510   -2.2780473758   -0.3638000764
N        3.8459737994    1.2043607713   -0.8645657948
N        4.0992651666   -0.3645247084    0.6950865953
N        1.6456277818   -1.6279538838   -0.1148627204
O        1.0445637563    0.2366349347   -1.2674771126
H        5.8044400253    2.1298515249   -0.5243260733
H        6.1276239443    0.3004171636    1.3184866075
H        0.3575037540   -3.2774920088    0.0815684631
H        0.1933176602   -2.3747243537   -1.4409154217
H       -0.4470810850   -1.6939279871    0.0774400364
H        3.8648498109   -1.1051558583    1.3481322718
H        2.4153100279   -2.1619294573    0.2635776650
16   

C        5.0683571450    1.6191907756    0.0278797174
C        5.2975945189    0.5658742647    0.8594309014
C        3.3389142602    0.3012334834   -0.1957897220
C        2.0515908334   -0.2837419663   -0.6657058408
C        0.4727365601   -2.1720701845   -0.4434735308
N        3.8600386838    1.4424515585   -0.6179987562
N        4.2104456032   -0.2886076302    0.7374378746
N        1.7083713091   -1.4962943763   -0.0755069432
O        1.3159363461    0.2185217727   -1.5080833508
H        5.7322379491    2.4648088367   -0.1119956821
H        6.1743329243    0.4398791876    1.4843483404
H        0.3892962069   -3.1252131140    0.0874377690
H        0.4557406279   -2.3731760104   -1.5200039404
H       -0.3912371519   -1.5510501271   -0.1835463725
H        4.0844725312   -1.1788046283    1.2060892329
H        2.2945981086   -1.8828254521    0.6487859866
