23   

C        5.7042775324    1.7556438870    0.0594218157
C        4.7744217757    2.0861443326   -0.9258357477
C        5.4913114576    0.6320105308    0.8576718037
C        3.6365486255    1.2927406435   -1.1114235844
C        4.3524510740   -0.1602461420    0.6696731506
C        3.3976863882    0.1482551491   -0.3220298855
C        1.3327809976   -0.6541372046   -1.5697315976
C        2.1983112263   -0.6870352723   -0.5130619146
C        0.1962634025   -1.6083472505   -1.3754978799
C        1.7411792988   -1.7138808513    0.5142638396
C        0.8352972011   -2.5798936153   -0.3746011217
H        6.5862680408    2.3690442180    0.2051430605
H        4.9319977399    2.9600096936   -1.5476490215
H        6.2097416908    0.3711366923    1.6264338445
H        2.9288168659    1.5797968665   -1.8784595403
H        4.2312234109   -1.0208829965    1.3130268283
H        1.4553296846   -0.0394569855   -2.4531421469
H       -0.1095874625   -2.1079494433   -2.3001042091
H       -0.6517609556   -1.0843540523   -0.9223659676
H        1.1629580854   -1.2174272300    1.3001008506
H        2.5467216569   -2.3146621956    0.9442650101
H        0.1069173957   -3.1726082005    0.1878221541
H        1.4789615850   -3.2625346883   -0.9399515527
23   

C        5.6840770422    1.7387581609    0.0544762845
C        4.6739639217    2.1491084213   -0.8169055170
C        5.5561555341    0.5296486206    0.7402811568
C        3.5390799002    1.3507647163   -0.9997260304
C        4.4201598844   -0.2674724852    0.5550492913
C        3.3879415249    0.1268787584   -0.3171525404
C        1.4189529252   -0.7735493568   -1.6358707336
C        2.1913202213   -0.7122278493   -0.5124870485
C        0.2554446402   -1.6958935791   -1.4455861773
C        1.6315449795   -1.6215807353    0.5725220574
C        0.7934589668   -2.5678142632   -0.3013802391
H        6.5638951893    2.3558261888    0.1978078975
H        4.7672663453    3.0877173200   -1.3511560013
H        6.3391044368    0.2057484885    1.4164783517
H        2.7618009172    1.6897394853   -1.6736219204
H        4.3576970830   -1.2035511848    1.0941442257
H        1.6344352977   -0.2483737335   -2.5589990873
H        0.0206120599   -2.2831292315   -2.3388975053
H       -0.6195002968   -1.1233371482   -1.1203974262
H        0.9927557277   -1.0402445748    1.2450629316
H        2.3879625258   -2.1702216750    1.1394970201
H        0.0109085842   -3.0966177824    0.2519328961
H        1.4732797156   -3.3073257454   -0.7382076683
23   

C        5.6794902982    1.7314404950    0.0610925923
C        4.6050268238    2.2034855691   -0.6967266805
C        5.6224742340    0.4544590433    0.6251494459
C        3.4763862531    1.3981967030   -0.8885834560
C        4.4923864940   -0.3488747406    0.4308206941
C        3.4032627972    0.1089207824   -0.3287415061
C        1.5146486817   -0.8933182627   -1.6862657565
C        2.2086362474   -0.7352390689   -0.5238182256
C        0.3238830272   -1.7789521274   -1.4875527200
C        1.5561086867   -1.5166423168    0.6072323220
C        0.7643325075   -2.5376045644   -0.2251104534
H        6.5543252057    2.3539382630    0.2112817791
H        4.6439551295    3.1943019142   -1.1347712974
H        6.4545128133    0.0843104068    1.2132245405
H        2.6446725338    1.7751593114   -1.4718580151
H        4.4669808269   -1.3389519260    0.8692087830
H        1.8052499942   -0.4577396573   -2.6353650023
H        0.1409044551   -2.4506541420   -2.3321161336
H       -0.5609005470   -1.1665176088   -1.2845091747
H        0.8829619620   -0.8597986668    1.1673365374
H        2.2682517861   -2.0025549122    1.2803431123
H       -0.0649366136   -2.9983946596    0.3209249019
H        1.4592877233   -3.3252872723   -0.5355687227
23   

C        5.6797698396    1.7241792983    0.0660432804
C        4.5472072117    2.2450820907   -0.5660465495
C        5.6860674171    0.3937259583    0.4947796348
C        3.4240556432    1.4345542003   -0.7686015091
C        4.5610367294   -0.4139985235    0.2896417444
C        3.4191384829    0.0935790363   -0.3472131755
C        1.6025162479   -1.0205765221   -1.7230667643
C        2.2247493325   -0.7562099141   -0.5408781989
C        0.3844055999   -1.8652934742   -1.5108125666
C        1.4884616942   -1.4034335867    0.6223556556
C        0.7289749080   -2.4941053567   -0.1499815071
H        6.5501714460    2.3507294408    0.2248769034
H        4.5369701621    3.2771792344   -0.8973929988
H        6.5618770859   -0.0131944955    0.9872084355
H        2.5452248688    1.8437614139   -1.2529189243
H        4.5724610978   -1.4444292510    0.6246595002
H        1.9596142331   -0.6827365514   -2.6892350492
H        0.2415147147   -2.6189950537   -2.2914790355
H       -0.4991231904   -1.2234230157   -1.4298874540
H        0.7967399093   -0.6819093602    1.0686327302
H        2.1547093870   -1.8228350847    1.3823892355
H       -0.1422455958   -2.8837095976    0.3860718228
H        1.4253923992   -3.3197125747   -0.3319856342
23   

C        5.6827771703    1.7185964012    0.0618737416
C        4.4964252491    2.2787507753   -0.4211484011
C        5.7428103709    0.3495671354    0.3392553000
C        3.3731114612    1.4688605389   -0.6258677611
C        4.6172463321   -0.4568990598    0.1321356071
C        3.4231676683    0.0917078029   -0.3552662704
C        1.6871047949   -1.1515326943   -1.7349267067
C        2.2263393877   -0.7610091579   -0.5477672208
C        0.4460041195   -1.9607516144   -1.5171373841
C        1.4050403639   -1.2720187919    0.6261761707
C        0.6871005146   -2.4372236900   -0.0741016001
H        6.5532776947    2.3444894112    0.2227338930
H        4.4449016430    3.3402173463   -0.6350425810
H        6.6601126246   -0.0878864710    0.7164875223
H        2.4524674014    1.9053598100   -0.9950817910
H        4.6655777065   -1.5171443652    0.3511418161
H        2.1170625463   -0.9250122673   -2.7039533359
H        0.3474014076   -2.7953331412   -2.2183225713
H       -0.4323637932   -1.3089100981   -1.5695939006
H        0.6936569633   -0.5026549947    0.9427098638
H        2.0162347927   -1.6076174427    1.4697696514
H       -0.2240707931   -2.7612156990    0.4386982363
H        1.3839104786   -3.2813380851   -0.1149993620
23   

C        5.6883203830    1.7087992430    0.0657095792
C        4.4588345507    2.3004052915   -0.2395893882
C        5.7851629038    0.3174377883    0.1649020725
C        3.3289180960    1.4996500358   -0.4439795983
C        4.6527444311   -0.4796893414   -0.0410694524
C        3.4149758020    0.1014554919   -0.3468766136
C        1.7773421658   -1.2722881174   -1.7288005932
C        2.2139742305   -0.7465139839   -0.5519983296
C        0.5178878986   -2.0568447014   -1.5271582757
C        1.2995216499   -1.1329829327    0.6001637133
C        0.6371864919   -2.3713762801   -0.0255195438
H        6.5641885790    2.3273735537    0.2257364587
H        4.3794994814    3.3787444440   -0.3171125947
H        6.7365257391   -0.1447359549    0.4024240057
H        2.3759184293    1.9590715533   -0.6788014409
H        4.7290653999   -1.5578239651    0.0381344747
H        2.2937402580   -1.1606191704   -2.6754086354
H        0.4729943325   -2.9637277251   -2.1382894505
H       -0.3495662996   -1.4178956423   -1.7231260662
H        0.5667599873   -0.3385702447    0.7735882077
H        1.8410125384   -1.3713137669    1.5210136964
H       -0.3144713436   -2.6419528769    0.4427704946
H        1.3315599189   -3.2113821829    0.0838351811
23   

C        5.6958944256    1.6986987922    0.0808276754
C        4.4403296695    2.3017197169   -0.0399107033
C        5.8100397536    0.3075195941    0.0000083345
C        3.3015368006    1.5124576115   -0.2394701665
C        4.6687295256   -0.4783879892   -0.1998845144
C        3.4037715480    0.1132658971   -0.3173723764
C        1.8700677560   -1.3848309400   -1.6822316340
C        2.1991330858   -0.7226865353   -0.5393253872
C        0.5915776931   -2.1449048974   -1.5094275406
C        1.1828758464   -0.9847798282    0.5616839568
C        0.5741813546   -2.2893789220    0.0223471072
H        6.5789024716    2.3084000853    0.2355893105
H        4.3479825291    3.3801505098    0.0198991227
H        6.7821532507   -0.1633197115    0.0917533879
H        2.3294464425    1.9815665574   -0.3360369838
H        4.7597263072   -1.5564376454   -0.2631542999
H        2.4772733964   -1.3895068211   -2.5802733292
H        0.5953417040   -3.1146203288   -2.0169810851
H       -0.2500400763   -1.5342722269   -1.8527689018
H        0.4400206895   -0.1810774595    0.5787214991
H        1.6386124628   -1.1148181544    1.5483127079
H       -0.4168928812   -2.5111403144    0.4306835199
H        1.2522792312   -3.1078563427    0.2870209585
23   

C        5.6955047044    1.6838563763    0.1018991713
C        4.4269256477    2.2691749498    0.1484398766
C        5.8204244244    0.3135322176   -0.1450924510
C        3.2858875338    1.4831937795   -0.0508619532
C        4.6771139156   -0.4697648488   -0.3437360304
C        3.3980327187    0.1026655345   -0.2941189738
C        1.9502540324   -1.5027582368   -1.6192238556
C        2.1942385425   -0.7234049831   -0.5290747895
C        0.6477361577   -2.2278117495   -1.4790051120
C        1.0815261581   -0.8594184213    0.4997002853
C        0.4991008611   -2.2094991956    0.0518902060
H        6.5802510712    2.2914482997    0.2550260851
H        4.3261272907    3.3320272522    0.3363362606
H        6.8027866537   -0.1431447294   -0.1840530591
H        2.3045439797    1.9417499125   -0.0206535666
H        4.7790207672   -1.5313019384   -0.5363911176
H        2.6316267791   -1.6127735521   -2.4551358651
H        0.6764905025   -3.2457707667   -1.8801614318
H       -0.1504254131   -1.6488549265   -1.9552383892
H        0.3529243037   -0.0535978969    0.3660543304
H        1.4477354283   -0.8860165477    1.5308459871
H       -0.5264205999   -2.3789436592    0.3950033076
H        1.1389933030   -3.0001885803    0.4583294773
23   

C        5.7005439235    1.6769585630    0.1137486028
C        4.4276758743    2.2213017096    0.3049402094
C        5.8335237741    0.3429627448   -0.2814155498
C        3.2903226880    1.4312886120    0.1007393514
C        4.6942646123   -0.4450094400   -0.4845868158
C        3.4092259711    0.0860422064   -0.2939578817
C        2.0211865857   -1.6198429735   -1.5529521136
C        2.2093248496   -0.7377691223   -0.5305899238
C        0.6933303951   -2.3021818757   -1.4379717104
C        1.0170345369   -0.7455788117    0.4153739512
C        0.4359135992   -2.1248638085    0.0674658328
H        6.5822153579    2.2881640537    0.2701983267
H        4.3203332829    3.2563338755    0.6087662559
H        6.8193405941   -0.0822307831   -0.4313618673
H        2.3071058590    1.8634798294    0.2437843082
H        4.8073640058   -1.4786295133   -0.7892285538
H        2.7535081401   -1.8275104417   -2.3245916704
H        0.7242292880   -3.3561546950   -1.7315416593
H       -0.0531636294   -1.7599755769   -2.0277414084
H        0.3207127181    0.0532519012    0.1411986745
H        1.3016068982   -0.6693133711    1.4695711039
H       -0.6153860957   -2.2407179667    0.3493703516
H        1.0260052813   -2.8797329490    0.5984545075
23   

C        5.6974677584    1.6797333926    0.1140630247
C        4.4279437594    2.1613339359    0.4426954552
C        5.8356748700    0.3963620179   -0.4204499373
C        3.2988524127    1.3603006975    0.2353977367
C        4.7051648603   -0.4032241736   -0.6267405150
C        3.4209505649    0.0658961469   -0.3031922162
C        2.0742446895   -1.7364851621   -1.4774053600
C        2.2279696074   -0.7665864348   -0.5296377703
C        0.7228905787   -2.3746851744   -1.3849876272
C        0.9755226386   -0.6562886704    0.3280681760
C        0.3768522576   -2.0483604846    0.0761444242
H        6.5723806657    2.2999169756    0.2731171909
H        4.3163275246    3.1570943306    0.8563826115
H        6.8193295650    0.0186749459   -0.6751895492
H        2.3212797115    1.7522982329    0.4886626873
H        4.8304216773   -1.3981629190   -1.0359732548
H        2.8384309949   -2.0310970281   -2.1869373129
H        0.7420271789   -3.4523904268   -1.5752212386
H        0.0305526706   -1.8749716119   -2.0705795962
H        0.3223447920    0.1277782837   -0.0680712325
H        1.1901740260   -0.4862603731    1.3878787475
H       -0.6930896450   -2.1117514069    0.2982459413
H        0.9099965817   -2.7621196522    0.7135763323
23   

C        5.6964348474    1.6896992960    0.1077154240
C        4.4428138616    2.0968427633    0.5686875256
C        5.8264605441    0.4691099412   -0.5579565311
C        3.3210436618    1.2850893368    0.3627961628
C        4.7039000672   -0.3417577176   -0.7631009773
C        3.4325919138    0.0533148632   -0.3090337852
C        2.1212392521   -1.8437827336   -1.3819696578
C        2.2461631201   -0.7920407375   -0.5187855407
C        0.7486368633   -2.4387097430   -1.3215805602
C        0.9427880510   -0.5740788432    0.2370283480
C        0.3180407854   -1.9675864994    0.0746619279
H        6.5652198978    2.3185490037    0.2663618527
H        4.3373524754    3.0440442479    1.0852579016
H        6.7983016503    0.1481071209   -0.9151764337
H        2.3608906933    1.6309901414    0.7245723763
H        4.8326121206   -1.2869475213   -1.2746701658
H        2.9116521809   -2.2227210231   -2.0182435899
H        0.7482338240   -3.5297666409   -1.4088190500
H        0.1174703669   -1.9903992565   -2.0960066382
H        0.3417573629    0.1865288889   -0.2715986680
H        1.0874643136   -0.3172949019    1.2911317252
H       -0.7656314495   -1.9827141578    0.2281328189
H        0.7855210777   -2.6312847497    0.8101884259
23   

C        5.6968271920    1.7036283358    0.0915609932
C        4.4765436562    2.0271899127    0.6870833614
C        5.7970638911    0.5595233646   -0.7016218057
C        3.3582652788    1.2080694924    0.4905651557
C        4.6786522594   -0.2590482768   -0.8977937245
C        3.4395211056    0.0501590050   -0.3058373391
C        2.1684998362   -1.9397119225   -1.2613309690
C        2.2580617444   -0.8081433185   -0.4991277687
C        0.7807483731   -2.5005640536   -1.2488319060
C        0.9101780687   -0.4979625792    0.1382523226
C        0.2598649179   -1.8869659311    0.0569041453
H        6.5624302930    2.3383832505    0.2439917790
H        4.3939449709    2.9158555106    1.3024192425
H        6.7426566551    0.3041169382   -1.1661124958
H        2.4305492968    1.4997115579    0.9646685208
H        4.7888120477   -1.1397998181   -1.5165156983
H        2.9900027624   -2.3980198373   -1.7976036288
H        0.7586448911   -3.5947280655   -1.2299684766
H        0.2208490208   -2.1189833152   -2.1090507931
H        0.3675377614    0.2273815552   -0.4764518469
H        0.9769466210   -0.1597632706    1.1764787608
H       -0.8322814357   -1.8646108269    0.1266304401
H        0.6510964126   -2.4870767117    0.8856577790
23   

C        5.7135099375    1.7212342368    0.0756589134
C        4.5481552472    1.9521511326    0.8087857361
C        5.7566761233    0.6695324212   -0.8410610195
C        3.4279244986    1.1318844830    0.6278450680
C        4.6365188327   -0.1500474785   -1.0216903797
C        3.4543747442    0.0641956737   -0.2890751920
C        2.2266084102   -2.0025627580   -1.1201040775
C        2.2742189628   -0.7995502354   -0.4736592417
C        0.8337220473   -2.5485459789   -1.1582982275
C        0.8901452267   -0.4153842120    0.0318861634
C        0.2239775578   -1.7999151648    0.0338645084
H        6.5805381143    2.3566229186    0.2169480810
H        4.5104186371    2.7686394907    1.5209101792
H        6.6583170752    0.4880222913   -1.4148372274
H        2.5484419138    1.3476646951    1.2185370543
H        4.6946126393   -0.9536479928   -1.7444630977
H        3.0838310319   -2.5189600031   -1.5345069116
H        0.7931427525   -3.6347848276   -1.0298813448
H        0.3473803002   -2.2530021705   -2.0937927130
H        0.4068015627    0.2527866167   -0.6880252239
H        0.8762203179    0.0178489980    1.0351923347
H       -0.8697217012   -1.7599487046    0.0140817670
H        0.5378816608   -2.3182885888    0.9463743902
23   

C        5.7056623400    1.7222846458    0.0659095249
C        4.6031697244    1.8573504651    0.9126665058
C        5.6837561929    0.7675224247   -0.9531093521
C        3.4807989648    1.0381480536    0.7413303565
C        4.5607382658   -0.0505637859   -1.1232449068
C        3.4431219064    0.0702795317   -0.2797042664
C        2.2593803686   -2.0608313726   -0.9774480830
C        2.2651530760   -0.7983991961   -0.4587912149
C        0.8694193592   -2.6111438642   -1.0531481985
C        0.8517030630   -0.3605040485   -0.1013692837
C        0.1816923885   -1.7391241323    0.0076105307
H        6.5751798169    2.3559202397    0.1995331221
H        4.6173569313    2.5957882977    1.7061886319
H        6.5365383873    0.6604490982   -1.6137222186
H        2.6475493159    1.1591755615    1.4208110843
H        4.5576032694   -0.7805461744   -1.9234229988
H        3.1473312290   -2.6098560524   -1.2681523896
H        0.8145287646   -3.6773942160   -0.8121078187
H        0.4504241247   -2.4190075358   -2.0464321597
H        0.4266582715    0.2175583384   -0.9281065990
H        0.7715093387    0.1945670178    0.8367068527
H       -0.9078554343   -1.7053951931   -0.0919908704
H        0.4301939679   -2.1533678569    0.9907151748
23   

C        5.7016789150    1.7231091706    0.0677969864
C        4.6650347103    1.7561933316    1.0043233975
C        5.6142966602    0.8692891758   -1.0350691853
C        3.5426793145    0.9364979462    0.8367961046
C        4.4907011876    0.0506975957   -1.2004203617
C        3.4396109017    0.0748100277   -0.2706976421
C        2.2832394303   -2.1089153534   -0.8308482553
C        2.2654581360   -0.8032193318   -0.4396165551
C        0.8946037233   -2.6572447394   -0.9440371863
C        0.8376129369   -0.3191486278   -0.2340058953
C        0.1458330140   -1.6759307802   -0.0277390856
H        6.5718569237    2.3566470942    0.1974756769
H        4.7310335603    2.4143337631    1.8631798681
H        6.4169291258    0.8402828481   -1.7631132807
H        2.7522093595    0.9638301050    1.5767197398
H        4.4306245455   -0.6065752697   -2.0597481562
H        3.1864245742   -2.6819651469   -1.0064237109
H        0.8108806764   -3.6925708024   -0.5989985943
H        0.5459886707   -2.5670690171   -1.9781891993
H        0.4801158052    0.1693880315   -1.1460458015
H        0.7117877691    0.3394310561    0.6301597150
H       -0.9339920541   -1.6479946434   -0.2048456721
H        0.3225681741   -1.9863102416    1.0077489370
23   

C        5.6985466827    1.7235940208    0.0743549768
C        4.7381395540    1.6442660268    1.0869997532
C        5.5352393932    0.9808999628   -1.0987659709
C        3.6157112069    0.8238209809    0.9242837420
C        4.4114089922    0.1613396996   -1.2585316564
C        3.4370423665    0.0768424907   -0.2538317657
C        2.2891333938   -2.1445918903   -0.6751850063
C        2.2632693699   -0.8078743272   -0.4153209700
C        0.9026897466   -2.6870639854   -0.8359254849
C        0.8345858116   -0.2877179694   -0.3678701500
C        0.1053963144   -1.6100699611   -0.0808298884
H        6.5688954330    2.3578236298    0.1994095364
H        4.8632976855    2.2156584602    1.9996709585
H        6.2793473313    1.0383253744   -1.8849683628
H        2.8779850048    0.7592269757    1.7153235910
H        4.2898347349   -0.4139124802   -2.1688506955
H        3.1949016985   -2.7375645603   -0.7310367819
H        0.7755853985   -3.6813380260   -0.3963860890
H        0.6324676287   -2.6984186805   -1.8970605667
H        0.5546916464    0.1123588595   -1.3475840963
H        0.6667154842    0.4561425495    0.4169654422
H       -0.9577255143   -1.5888914254   -0.3406172220
H        0.1994242850   -1.8166993170    0.9907245096
23   

C        5.6998577648    1.7184445779    0.0849346316
C        4.8263231285    1.5098056650    1.1563947325
C        5.4520692994    1.1011765912   -1.1449263200
C        3.7061961241    0.6858448357    0.9954004053
C        4.3307430765    0.2776248297   -1.3019865176
C        3.4445102499    0.0644123029   -0.2375125344
C        2.2760988782   -2.1756694874   -0.5113890329
C        2.2654146535   -0.8187333144   -0.4041561714
C        0.8915266053   -2.7059899782   -0.7218080376
C        0.8530743617   -0.2675306500   -0.5254935841
C        0.0683897743   -1.5364106317   -0.1545372656
H        6.5679419123    2.3561849811    0.2078451278
H        5.0163775462    1.9845430224    2.1122315669
H        6.1282599372    1.2593627442   -1.9773050181
H        3.0320683560    0.5218992980    1.8279098374
H        4.1417773754   -0.2010362956   -2.2557321879
H        3.1676540487   -2.7867742474   -0.4284326924
H        0.7033517438   -3.6427460419   -0.1879566501
H        0.7036047154   -2.8298929180   -1.7934891226
H        0.6591010925    0.0281569929   -1.5614115471
H        0.6508510856    0.5612571090    0.1601149147
H       -0.9708269046   -1.5242952476   -0.4981184673
H        0.0744289424   -1.6245029885    0.9372340406
23   

C        5.7078920092    1.7140466075    0.0999020470
C        4.9333253968    1.3506609794    1.2056732452
C        5.3670790357    1.2447840917   -1.1723629421
C        3.8195270993    0.5196815908    1.0366584415
C        4.2526160126    0.4133900351   -1.3367011416
C        3.4681396699    0.0426152271   -0.2364538470
C        2.2544354374   -2.1910049966   -0.3555470640
C        2.2821843361   -0.8317888254   -0.4169077549
C        0.8712599677   -2.7076566449   -0.6050994763
C        0.9008259448   -0.2623437947   -0.7007623089
C        0.0502953682   -1.4579209753   -0.2414847711
H        6.5702848245    2.3583357240    0.2285818089
H        5.1940610756    1.7124177495    2.1937347173
H        5.9648754889    1.5249246853   -2.0321740620
H        3.2188198858    0.2394044401    1.8940084044
H        3.9894219592    0.0516745272   -2.3237811558
H        3.1149036699   -2.8085554722   -0.1243869066
H        0.6140223821   -3.5687136527    0.0196828593
H        0.7557451616   -2.9540948496   -1.6657803167
H        0.7867086175   -0.0862461070   -1.7750395434
H        0.6824233103    0.6467113912   -0.1316404016
H       -0.9614414101   -1.4610669829   -0.6592594418
H       -0.0228786971   -1.4145653799    0.8505282985
23   

C        5.7035505628    1.7094418511    0.1123048310
C        5.0317902546    1.1885433923    1.2221977521
C        5.2676717101    1.3899177453   -1.1771423897
C        3.9263489223    0.3491941337    1.0401660595
C        4.1621488759    0.5492885715   -1.3543947239
C        3.4830149147    0.0170012399   -0.2500041438
C        2.2203048897   -2.1894400922   -0.2113685962
C        2.2960650298   -0.8501953583   -0.4424731742
C        0.8418293182   -2.7019460618   -0.4929941684
C        0.9529046346   -0.2895329777   -0.8851059800
C        0.0382314518   -1.3985971451   -0.3403017935
H        6.5588298498    2.3610653270    0.2511495354
H        5.3646647934    1.4360545420    2.2237205842
H        5.7840883951    1.7942981130   -2.0402210126
H        3.4027962072   -0.0491262253    1.9013770903
H        3.8242163235    0.3064330704   -2.3549889148
H        3.0401050312   -2.7904256109    0.1653662852
H        0.5172161098   -3.4737440287    0.2119383344
H        0.7893171790   -3.0738083155   -1.5216010455
H        0.9116588901   -0.2464417086   -1.9780382425
H        0.7274510378    0.6882694669   -0.4479177133
H       -0.9445903610   -1.4304676220   -0.8211213184
H       -0.1025740296   -1.2181551962    0.7308726851
23   

C        5.6986793461    1.7122228266    0.1195817446
C        5.1292093417    1.0509374243    1.2115453697
C        5.1630188172    1.5315760542   -1.1589939584
C        4.0265358129    0.2095543460    1.0225660558
C        4.0607066277    0.6884621734   -1.3441147405
C        3.4840031792    0.0134044768   -0.2588623392
C        2.1819322051   -2.1558834232   -0.0800781397
C        2.3008388837   -0.8513616009   -0.4529803963
C        0.8155289416   -2.6805079279   -0.3957837355
C        0.9990084558   -0.3301332469   -1.0435278310
C        0.0293467468   -1.3590036941   -0.4403832470
H        6.5517028272    2.3655270756    0.2642806888
H        5.5389059732    1.1916737668    2.2052539120
H        5.5996831173    2.0457002688   -2.0075895775
H        3.5820918881   -0.2947714167    1.8725460444
H        3.6471791447    0.5547170160   -2.3367576556
H        2.9609492880   -2.7211753930    0.4186044686
H        0.4309548760   -3.3655596328    0.3663269571
H        0.8230580702   -3.1631838013   -1.3786351586
H        1.0285237323   -0.4109392149   -2.1347038151
H        0.7640298679    0.6934581765   -0.7350630052
H       -0.9211308114   -1.4321004275   -0.9783210224
H       -0.1758432827   -1.0582946598    0.5927340101
23   

C        5.6906932126    1.7166084733    0.1244612129
C        5.2188075548    0.9405036229    1.1864133978
C        5.0557001300    1.6519004868   -1.1187941140
C        4.1142715815    0.1004074410    1.0029612280
C        3.9517461324    0.8100285243   -1.2993436675
C        3.4691876097    0.0196370864   -0.2447253227
C        2.1300709934   -2.1113235021    0.0533915251
C        2.2924859941   -0.8486042713   -0.4338548388
C        0.7835038415   -2.6580387982   -0.3069931485
C        1.0423499095   -0.3878491906   -1.1694172031
C        0.0189549697   -1.3439160385   -0.5370241122
H        6.5453695243    2.3686064991    0.2652523657
H        5.7059216987    0.9909219565    2.1535186382
H        5.4172896783    2.2544972091   -1.9441718455
H        3.7487072348   -0.4906887526    1.8341808125
H        3.4664066968    0.7675858277   -2.2671294814
H        2.8639085716   -2.6335242294    0.6564147746
H        0.3375090456   -3.2626862585    0.4889331597
H        0.8550290801   -3.2351694027   -1.2348142638
H        1.1496441371   -0.5823006376   -2.2412584632
H        0.7961648494    0.6629648946   -0.9868414969
H       -0.8924032281   -1.4648672020   -1.1310932454
H       -0.2537622514   -0.9400437979    0.4440460641
23   

C        5.6969015374    1.7475016948    0.0613107496
C        5.0087387279    1.7651141785   -1.1539055831
C        5.2277819457    0.9556606328    1.1119162931
C        3.8531983778    0.9920259600   -1.3164087780
C        4.0714423307    0.1839459523    0.9471601887
C        3.3636531262    0.1897129285   -0.2672796349
C        1.0978454753   -0.3743025655   -1.2606832967
C        2.1527460967   -0.6308468774   -0.4338707671
C        0.0610076284   -1.4503303944   -1.1651318765
C        1.9406126267   -1.9410672215    0.3108802689
C        0.9264760033   -2.6035846494   -0.6338172452
H        6.5923749178    2.3453247411    0.1883177353
H        5.3708472085    2.3759320453   -1.9729873831
H        5.7591833053    0.9387682751    2.0566165785
H        3.3368268005    1.0095871379   -2.2683179263
H        3.7209078800   -0.4204491712    1.7749816711
H        1.0291892024    0.4793162005   -1.9246465607
H       -0.4012917109   -1.6891873460   -2.1280616528
H       -0.7011076841   -1.1651696958   -0.4323707241
H        1.4919783094   -1.7431735492    1.2896004655
H        2.8551644212   -2.5336762492    0.4138225677
H        0.3483841293   -3.4051773427   -0.1633059101
H        1.4818123423   -3.0223541309   -1.4801356123
23   

C        5.6991001687    1.7498286521    0.0647393526
C        4.9410068398    1.8763033824   -1.1001791229
C        5.3065974706    0.8416117562    1.0490783900
C        3.7936892227    1.0947467247   -1.2794182368
C        4.1585572273    0.0613610164    0.8679897680
C        3.3793782981    0.1687438242   -0.3003233518
C        1.1643387125   -0.4619850911   -1.3791371767
C        2.1709597129   -0.6530664534   -0.4754842674
C        0.0958932774   -1.5005278993   -1.2323772183
C        1.8821376580   -1.8757538466    0.3841812108
C        0.8998498955   -2.6102840537   -0.5400612816
H        6.5880397562    2.3544718315    0.2047107240
H        5.2416745563    2.5799078982   -1.8680709771
H        5.8906590644    0.7413090050    1.9568062632
H        3.2276127549    1.2080906441   -2.1950776307
H        3.8757732594   -0.6274945667    1.6541201859
H        1.1404264308    0.3225372935   -2.1255775706
H       -0.3211387971   -1.8273042750   -2.1901412428
H       -0.6960150041   -1.1253889999   -0.5756807179
H        1.3910478744   -1.5684257091    1.3130705577
H        2.7696512952   -2.4812342840    0.5932800299
H        0.2764777742   -3.3455641514   -0.0215045936
H        1.4859779378   -3.1269242739   -1.3078884023
23   

C        5.6936748635    1.7506661488    0.0648104732
C        4.8540467475    1.9848920694   -1.0238258512
C        5.3878016502    0.7283290360    0.9628225146
C        3.7135819957    1.1960431672   -1.2138379133
C        4.2465492297   -0.0592759711    0.7708638928
C        3.3840991549    0.1506362763   -0.3256557798
C        1.2328429871   -0.5604435185   -1.4889942454
C        2.1803592564   -0.6780998488   -0.5108310367
C        0.1300630157   -1.5558271633   -1.3053800965
C        1.8152727150   -1.8086268234    0.4413892663
C        0.8602969815   -2.6065065150   -0.4589109994
H        6.5773608714    2.3608968235    0.2135237089
H        5.0846766579    2.7797993844   -1.7238663105
H        6.0343011579    0.5443473705    1.8133370152
H        3.0830018767    1.4055737748   -2.0678336004
H        4.0430708307   -0.8345171812    1.4977320225
H        1.2687033437    0.1440256504   -2.3106051658
H       -0.2390668077   -1.9685197532   -2.2495571456
H       -0.6882619544   -1.0992973490   -0.7388297956
H        1.2894937592   -1.4042816406    1.3123004032
H        2.6674161994   -2.4222881144    0.7482388157
H        0.1875239581   -3.2694008661    0.0943488002
H        1.4705121621   -3.2136276115   -1.1363818964
