29   

C        3.0847599660   -2.8287828735    0.6884652348
C        2.3907594471   -1.6871161288    0.2799028249
C        2.9346443387   -3.3009617305    1.9949158825
C        1.5442408996   -1.0227516484    1.1746153982
C        2.0985120657   -2.6275315441    2.8925468059
C       -0.1570850532   -4.4160026303    5.7096317099
C       -0.0371065878   -5.6858466586    5.1389046852
C       -1.3804377059   -3.6832908879    3.7639033681
C        1.3909331718   -1.4815425091    2.4939293585
C       -0.8193934214   -3.3977729389    5.0169663121
C       -0.5744427828   -5.9639087721    3.8753967037
C       -1.2589533506   -4.9499207499    3.1811396647
C        0.5091501165   -0.7873169015    3.4275816395
C        0.3878060838   -0.8933446838    4.8032310948
O       -2.2091441315   -1.0856893035    5.3447235488
O       -0.6415049224   -1.6919537121    7.1437615157
S       -0.9261336337   -1.7117408648    5.7003690675
Cl      -0.3825058990   -7.5614804217    3.1868700037
Cl      -1.9507608859   -5.2393941306    1.5993255393
H        3.7372577913   -3.3464274015   -0.0059228313
H        2.5087250504   -1.3151520562   -0.7316874535
H        3.4662077197   -4.1903395854    2.3138168516
H        1.0139547375   -0.1389661199    0.8375320859
H        1.9915593125   -3.0067278929    3.9026622432
H        0.2700353383   -4.2177688159    6.6898969247
H        0.4820640295   -6.4700851486    5.6771704388
H       -1.9111550601   -2.9063539140    3.2206022379
H        0.0656913143    0.1152186410    3.0186083633
H        0.6666563681   -0.0241279738    5.3796546373
29   

C        2.8626692951   -3.0973738691    0.8789985517
C        2.2279805405   -1.9464207835    0.4059987605
C        2.7514413972   -3.4452387175    2.2272072297
C        1.4780391193   -1.1495564060    1.2784076996
C        2.0050704448   -2.6448458175    3.0988868836
C       -0.0915304279   -4.4025779004    5.5578100345
C        0.0871498401   -5.6196800848    4.8949313010
C       -1.2556193247   -3.5487427786    3.6249750054
C        1.3501342919   -1.4909951026    2.6357523453
C       -0.7489709530   -3.3474135226    4.9172328211
C       -0.3865175143   -5.8081972138    3.5900704384
C       -1.0722044843   -4.7604521222    2.9494576080
C        0.5415697750   -0.6668667387    3.5329816962
C        0.3628656861   -0.7591282830    4.8918645275
O       -2.2213984765   -1.1199629922    5.4158059044
O       -0.6287353004   -1.7946854532    7.1589634785
S       -0.9112073709   -1.7173103522    5.7170195953
Cl      -0.1129168854   -7.3370192456    2.7835561169
Cl      -1.6832805202   -4.9372567684    1.3186860618
H        3.4404292203   -3.7174879874    0.2025888712
H        2.3142219403   -1.6719748250   -0.6394195666
H        3.2438665630   -4.3364859863    2.5992699697
H        0.9883651475   -0.2639695224    0.8886741707
H        1.9371071623   -2.9276485648    4.1425746331
H        0.2904618658   -4.2720079749    6.5676392969
H        0.6054767266   -6.4312114989    5.3919010377
H       -1.7836850547   -2.7443405943    3.1207844071
H        0.2341387100    0.2796201591    3.0993626360
H        0.4646560629    0.1550261968    5.4573835774
29   

C        2.7258068260   -3.3173059373    1.1573587483
C        2.0587556352   -2.2382087748    0.5729808921
C        2.7118891373   -3.4697037516    2.5450893287
C        1.3721610206   -1.3189154594    1.3747066310
C        2.0184822321   -2.5543527991    3.3437949301
C       -0.0258157473   -4.3755627722    5.2926886815
C        0.1615298528   -5.5240063983    4.5192729628
C       -1.2470099354   -3.3748109061    3.4687024064
C        1.3233561206   -1.4752888117    2.7703028578
C       -0.7105118985   -3.2773507023    4.7610494479
C       -0.3324909840   -5.6019716614    3.2108568339
C       -1.0535529845   -4.5161480696    2.6822207010
C        0.5569883417   -0.5315974344    3.5915111066
C        0.3097579057   -0.6052979790    4.9287815607
O       -2.2180097414   -1.1625871893    5.5443747750
O       -0.5070871854   -1.9251837775    7.1170334192
S       -0.8679583327   -1.7244330323    5.7045950168
Cl      -0.0379034511   -7.0414648566    2.2604196479
Cl      -1.6915458455   -4.5561392560    1.0527678158
H        3.2552995120   -4.0317335009    0.5368167298
H        2.0686282591   -2.1166122988   -0.5043447909
H        3.2385502903   -4.2981805231    3.0047608703
H        0.8532889896   -0.4939846765    0.8992709137
H        2.0326658123   -2.6825794353    4.4195872116
H        0.3758890867   -4.3288884130    6.3021598075
H        0.7060031162   -6.3657751584    4.9303377058
H       -1.8005278251   -2.5394860109    3.0499682185
H        0.3048452634    0.4057334659    3.1055773390
H        0.2802697982    0.3234972629    5.4784972136
29   

C        2.6583147237   -3.3787857029    1.2627399272
C        2.0227694706   -2.3000679871    0.6439437920
C        2.6343087623   -3.4896332132    2.6540613953
C        1.3563837605   -1.3405907535    1.4150628705
C        1.9572080091   -2.5361297467    3.4216341113
C       -0.0618045494   -4.4118629769    5.1808997855
C        0.1185801253   -5.5435150221    4.3823428082
C       -1.2631811324   -3.3549262393    3.3754078105
C        1.2882190430   -1.4597054698    2.8135285382
C       -0.7315503094   -3.2930171189    4.6719074763
C       -0.3687574525   -5.5854442089    3.0701622345
C       -1.0763200237   -4.4800884430    2.5635247237
C        0.5491190935   -0.4630326373    3.6015159598
C        0.1777163589   -0.5370859577    4.9009296734
O       -2.2724008672   -1.2742428126    5.6115369941
O       -0.4499315749   -2.0078214143    7.0496614324
S       -0.8888016516   -1.7705383933    5.6650201126
Cl      -0.0830916313   -7.0054893477    2.0882904503
Cl      -1.7066622175   -4.4769760083    0.9307549927
H        3.1731498289   -4.1237586584    0.6662452965
H        2.0420113867   -2.2095228406   -0.4362973672
H        3.1414665719   -4.3147392343    3.1408599099
H        0.8638000431   -0.5151224551    0.9133363319
H        1.9701399936   -2.6282606034    4.5012585832
H        0.3335410859   -4.3946197969    6.1938761028
H        0.6520114897   -6.4000029606    4.7772361825
H       -1.8077072131   -2.5054693015    2.9742582916
H        0.3829111906    0.4891926423    3.1076310954
H        0.0429331249    0.3956136076    5.4278385939
29   

C        3.1827225961   -3.5026061033    1.8668552734
C        2.3311556698   -2.8107285063    1.0027141044
C        3.1561772594   -3.2227618090    3.2342152798
C        1.4542001637   -1.8424338527    1.5055877604
C        2.2637873563   -2.2707548297    3.7381096285
C        0.0790343537   -4.3262215155    4.5559817355
C       -0.0603302125   -5.3329362799    3.5999193835
C       -1.7903034536   -3.1590425540    3.5789713899
C        1.3863902772   -1.5765131221    2.8832335265
C       -0.7680778886   -3.2120687525    4.5365875735
C       -1.0541580377   -5.2599256071    2.6179056124
C       -1.9375680412   -4.1643815877    2.6140792808
C        0.4412454624   -0.5694488990    3.3935683275
C        0.0186328725   -0.4506164304    4.6670491825
O       -1.7766312176   -1.4638471718    6.3538034023
O        0.5416622669   -2.1635438836    6.6795808792
S       -0.5093428163   -1.8299401467    5.7032337407
Cl      -1.1732129962   -6.5268028400    1.4163372642
Cl      -3.2040418378   -4.0271330104    1.4139292176
H        3.8677898328   -4.2472366514    1.4769308777
H        2.3489645927   -3.0259118856   -0.0596992718
H        3.8326962423   -3.7370462766    3.9075873346
H        0.7991165317   -1.3197718751    0.8177219723
H        2.2862829611   -2.0538808376    4.8002587337
H        0.8677992493   -4.3965596425    5.3008132748
H        0.6184869027   -6.1773625902    3.6085143715
H       -2.4736872403   -2.3153652296    3.5659074346
H        0.0974570678    0.1764708086    2.6841734331
H       -0.4410366707    0.4739927537    4.9819616020
29   

C        3.1709221047   -3.5177985073    1.9173400042
C        2.3358706082   -2.8187071217    1.0434343170
C        3.1519953985   -3.2158302248    3.2797970473
C        1.4815388134   -1.8235015478    1.5324891342
C        2.2801294893   -2.2377505968    3.7696837386
C        0.1048720510   -4.3354487265    4.4954485646
C       -0.0489164669   -5.3436734851    3.5430756508
C       -1.7760182668   -3.1677944050    3.5421573317
C        1.4135482124   -1.5401628956    2.9068730432
C       -0.7418037608   -3.2209957019    4.4867329640
C       -1.0569692219   -5.2718340579    2.5755268335
C       -1.9385361157   -4.1749034378    2.5816523556
C        0.4914195913   -0.4965766593    3.3940130478
C       -0.0667401049   -0.4280106557    4.6129763685
O       -1.7242408843   -1.5372736105    6.3687524446
O        0.6270582678   -2.1436242042    6.5841403252
S       -0.4748764917   -1.8412608197    5.6546260127
Cl      -1.1964104732   -6.5422622400    1.3798845343
Cl      -3.2229524822   -4.0391600504    1.4004698897
H        3.8393695308   -4.2829212343    1.5384188889
H        2.3491879751   -3.0487052023   -0.0159215908
H        3.8205446306   -3.7311154839    3.9603564686
H        0.8399320638   -1.2948490475    0.8365412399
H        2.3219696568   -1.9971198293    4.8250149419
H        0.9031295746   -4.4054802848    5.2300421317
H        0.6287350721   -6.1890358862    3.5439841854
H       -2.4588597845   -2.3236615776    3.5372046532
H        0.2038109575    0.2715467184    2.6833204575
H       -0.6012405050    0.4641377770    4.9021405324
29   

C        3.1460504542   -3.5322989839    1.9464025494
C        2.3313693521   -2.8051320914    1.0765334644
C        3.1363563643   -3.2358514934    3.3100156696
C        1.5058228458   -1.7887447405    1.5712736101
C        2.2907971318   -2.2373804219    3.8052700851
C        0.1208091154   -4.3510812072    4.4943420567
C       -0.0260778875   -5.3672380338    3.5490752390
C       -1.7573081485   -3.1953630837    3.5217502369
C        1.4412729649   -1.5138681593    2.9476182170
C       -0.7284835879   -3.2390424678    4.4726786881
C       -1.0298693997   -5.3057142603    2.5762574273
C       -1.9135145637   -4.2106039762    2.5689906042
C        0.5488647022   -0.4412576017    3.4356859218
C       -0.1477296657   -0.4286973687    4.5801756972
O       -1.7216043364   -1.5885073585    6.3721795019
O        0.6487488497   -2.1159055234    6.5456764175
S       -0.4769931785   -1.8506471920    5.6335721607
Cl      -1.1618680983   -6.5866925395    1.3910548634
Cl      -3.1934709519   -4.0876242443    1.3814888502
H        3.7929552863   -4.3136654480    1.5632861557
H        2.3382363951   -3.0294889351    0.0159216491
H        3.7930119916   -3.7703663718    3.9872779387
H        0.8802018140   -1.2376530778    0.8781825120
H        2.3477831729   -1.9975655287    4.8593721245
H        0.9149664018   -4.4132862368    5.2339812809
H        0.6531554735   -6.2112084670    3.5600232225
H       -2.4418823969   -2.3527979067    3.5063356042
H        0.3217901506    0.3581782987    2.7377236071
H       -0.7389874676    0.4369409429    4.8375201834
29   

C        2.0804315733   -3.0206265938    0.8742637320
C        0.9558598901   -2.1995472983    0.9624917453
C        2.9933076961   -3.0558377596    1.9298943612
C        0.7261106050   -1.4457681982    2.1185654366
C        2.7749540474   -2.2793912026    3.0740703150
C       -0.1873362578   -3.9665922694    5.3962824435
C        0.2217759083   -5.2658937013    5.0855222564
C       -1.0616369311   -3.7317543846    3.1630320848
C        1.6157291648   -1.4970033359    3.2072990660
C       -0.8127327864   -3.1764089868    4.4266580612
C        0.0110515591   -5.8034312047    3.8097371881
C       -0.6452059932   -5.0277052493    2.8376842400
C        1.4060280251   -0.7056417971    4.4417799888
C        0.2770703249   -0.6177839738    5.1553639018
O       -1.9646056488   -0.8249900987    3.6434399554
O       -2.1053796970   -1.4032528108    6.0023319181
S       -1.2765517802   -1.4461422823    4.7877277856
Cl       0.5677803073   -7.4235406328    3.4514126102
Cl      -0.9342255726   -5.6452976883    1.2253746122
H        2.2489906281   -3.6182665008   -0.0147434078
H        0.2617535109   -2.1391418322    0.1316427438
H        3.8707572714   -3.6887831724    1.8625833932
H       -0.1272960174   -0.7799582477    2.1322148889
H        3.4948429093   -2.3233999717    3.8833904489
H       -0.0093835290   -3.5668444878    6.3906930461
H        0.7159826626   -5.8688124203    5.8379461531
H       -1.5666436595   -3.1399465439    2.4049196467
H        2.2983683481   -0.3640137145    4.9562795299
H        0.2673586188   -0.0697304715    6.0851425969
29   

C        2.0902040700   -3.0162105997    0.8451208401
C        0.9748527830   -2.1854151820    0.9559070327
C        2.9977106454   -3.0975066028    1.9028913696
C        0.7497027297   -1.4664102933    2.1345863787
C        2.7829058220   -2.3578978213    3.0719483034
C       -0.2155226582   -3.9477218157    5.4195429133
C        0.2012025060   -5.2489381061    5.1271992268
C       -1.0595631352   -3.7375439123    3.1720183765
C        1.6336162947   -1.5642902764    3.2254498053
C       -0.8289271053   -3.1687465151    4.4333009655
C        0.0094086111   -5.7996584517    3.8539816583
C       -0.6357466923   -5.0355732506    2.8654540324
C        1.4256990953   -0.8172853644    4.4828525855
C        0.2570139186   -0.5880982184    5.0975551352
O       -1.9987306821   -0.8391390091    3.6174873718
O       -2.1123966051   -1.3690955250    5.9901440862
S       -1.2969987932   -1.4340557103    4.7674585603
Cl       0.5758837992   -7.4213991233    3.5191171203
Cl      -0.9012926658   -5.6698947112    1.2556053844
H        2.2558088253   -3.5858333835   -0.0626365259
H        0.2844130468   -2.0900023421    0.1252431492
H        3.8682383142   -3.7378699649    1.8178188945
H       -0.0968743190   -0.7924641505    2.1662091496
H        3.4986832420   -2.4386007220    3.8820886505
H       -0.0520702580   -3.5374278784    6.4121747808
H        0.6869091413   -5.8430714346    5.8920456320
H       -1.5549296060   -3.1546076107    2.4007216635
H        2.3149873991   -0.5445172376    5.0418274543
H        0.2336078513    0.0066855215    5.9979521162
29   

C        2.1213553313   -3.0017084235    0.8282505471
C        1.0013364733   -2.1786187274    0.9508315425
C        3.0198089053   -3.1082336194    1.8917522138
C        0.7644362939   -1.4895341966    2.1448041762
C        2.7924896929   -2.4003819966    3.0780112571
C       -0.2398996110   -3.9224481782    5.4496971677
C        0.1881740758   -5.2220053150    5.1657352198
C       -1.0703926211   -3.7290149716    3.1954090217
C        1.6419007246   -1.6102842881    3.2391436890
C       -0.8514136930   -3.1522771421    4.4554014662
C        0.0092143260   -5.7797424311    3.8935665025
C       -0.6352792023   -5.0251233099    2.8975020817
C        1.4140846867   -0.9000541771    4.5103590949
C        0.2256777130   -0.5425296280    5.0241797964
O       -2.0669010756   -0.8550254105    3.6291442013
O       -2.1053805786   -1.3308507683    6.0194024537
S       -1.3288064744   -1.4169174453    4.7729807657
Cl       0.5909378016   -7.3981903175    3.5691298612
Cl      -0.8852920136   -5.6682039247    1.2886056413
H        2.2967035388   -3.5472575391   -0.0923693169
H        0.3157569910   -2.0670908462    0.1181426602
H        3.8929132263   -3.7438426546    1.7976912688
H       -0.0909893809   -0.8266407400    2.1912554719
H        3.5008583835   -2.5011582833    3.8923940881
H       -0.0859449886   -3.5062799480    6.4414334655
H        0.6733005180   -5.8093404912    5.9361621625
H       -1.5642774403   -3.1533873559    2.4176121815
H        2.2907715925   -0.6777330762    5.1100851466
H        0.1950515433    0.1098327450    5.8836117729
29   

C        2.1628966411   -3.0100208698    0.8213509714
C        1.0305101613   -2.2034545559    0.9436637076
C        3.0484437534   -3.1262923439    1.8950158404
C        0.7709350954   -1.5367648436    2.1455034645
C        2.7979361019   -2.4424347548    3.0906599509
C       -0.2650428476   -3.9140944878    5.4669107180
C        0.1715749660   -5.2078658960    5.1692920375
C       -1.1182129876   -3.7120959635    3.2215891003
C        1.6397857365   -1.6628277964    3.2464335943
C       -0.8911237689   -3.1419093687    4.4832781609
C       -0.0136235789   -5.7576703605    3.8944459462
C       -0.6745112784   -5.0019465172    2.9101329551
C        1.3773105948   -0.9788394459    4.5233383938
C        0.1853130969   -0.5072739618    4.9364785143
O       -2.1795494204   -0.8751700148    3.7017997448
O       -2.0694866586   -1.3096791194    6.1029845709
S       -1.3724491886   -1.4097516955    4.8113919302
Cl       0.5813592825   -7.3675070686    3.5518499487
Cl      -0.9329101421   -5.6349553577    1.2985413152
H        2.3564096476   -3.5375308771   -0.1061137625
H        0.3519640450   -2.0897382423    0.1055527090
H        3.9293357111   -3.7511644120    1.8014837373
H       -0.1018267597   -0.8957068250    2.2009175742
H        3.4955873830   -2.5509039847    3.9132446682
H       -0.1052570431   -3.5033829066    6.4600563111
H        0.6691724350   -5.7966162202    5.9306115097
H       -1.6236551117   -3.1352423499    2.4520767181
H        2.2352384945   -0.7940636132    5.1616829775
H        0.1569025088    0.2127010387    5.7402884474
29   

C        2.2628275160   -3.0821556098    0.8612367539
C        1.0942829648   -2.3237154356    0.9510497643
C        3.1344242867   -3.1428984654    1.9511772277
C        0.7880573305   -1.6458886136    2.1355675488
C        2.8354286117   -2.4498345489    3.1302711113
C       -0.2399371039   -3.9178386733    5.4376405038
C        0.1952951229   -5.1932872905    5.0687292665
C       -1.2458041539   -3.6574945454    3.2621617498
C        1.6462131362   -1.7119363057    3.2490636939
C       -0.9407259592   -3.1245902961    4.5234571802
C       -0.0655733559   -5.7038990851    3.7909494955
C       -0.8037855707   -4.9288300604    2.8789998746
C        1.3243839411   -1.0170007913    4.5043598840
C        0.1282838398   -0.4729685229    4.8271813230
O       -2.3782155459   -0.8866048528    3.9575527749
O       -1.9102175369   -1.3277596287    6.3183691101
S       -1.4112127850   -1.4088173065    4.9367836589
Cl       0.5335665952   -7.2892740350    3.3545578528
Cl      -1.1579867624   -5.5134829740    1.2674323182
H        2.4938169032   -3.6173577092   -0.0531498897
H        0.4233763145   -2.2585603019    0.1017505259
H        4.0420634012   -3.7317848129    1.8831272438
H       -0.1177854146   -1.0500790033    2.1758240741
H        3.5222123928   -2.5148728497    3.9664745731
H       -0.0193887497   -3.5360324127    6.4308148923
H        0.7523278205   -5.7971838804    5.7750333897
H       -1.8099070937   -3.0639675714    2.5480298109
H        2.1588573244   -0.8207280124    5.1698353029
H        0.1093603287    0.3402973928    5.5369289905
29   

C        2.7039207228   -3.3294294002    1.2086574542
C        1.3941546286   -2.8463593198    1.1871095879
C        3.5486942229   -2.9917926699    2.2687746827
C        0.9276012187   -2.0398515739    2.2303196605
C        3.0802178264   -2.1816936590    3.3100173753
C       -0.1328067724   -3.9462322136    5.0052709670
C        0.1587992484   -5.1538116731    4.3690925785
C       -1.7875250562   -3.4740300210    3.3145190509
C        1.7560300269   -1.7111318615    3.3170730880
C       -1.0892563831   -3.0796467575    4.4649785626
C       -0.5037685180   -5.5271035537    3.1941456385
C       -1.4973559292   -4.6816970373    2.6661353870
C        1.2673555624   -0.8976570741    4.4350585254
C        0.0007845896   -0.4420834512    4.6481393599
O       -2.6468652285   -0.8616243257    4.7404693640
O       -1.3203142061   -1.5343829966    6.6838881349
S       -1.3825302856   -1.4441575034    5.2166551981
Cl      -0.0782668861   -7.0300395358    2.4051136714
Cl      -2.3572749476   -5.1006329453    1.2007074674
H        3.0640189104   -3.9590545564    0.4025231225
H        0.7373700959   -3.0943883784    0.3607221001
H        4.5678512118   -3.3613284185    2.2856431220
H       -0.0849404389   -1.6573613887    2.1826163117
H        3.7504070582   -1.9376002208    4.1267063599
H        0.4017877160   -3.6693662204    5.9100770966
H        0.9180635421   -5.8079707072    4.7809137642
H       -2.5511448620   -2.8226895064    2.8976039784
H        2.0417874657   -0.4698273054    5.0638387843
H       -0.1042039981    0.5343010228    5.0968812376
29   

C        3.0154064221   -3.2075851366    1.1633842443
C        1.6554585225   -2.8897047955    1.1410769635
C        3.8070319531   -2.7892756498    2.2358362165
C        1.0891978994   -2.1580206267    2.1903798141
C        3.2375644714   -2.0609485789    3.2867591485
C       -0.2839063705   -4.0001850918    4.9796305210
C       -0.1050128572   -5.2201054240    4.3260698725
C       -1.9796887097   -3.4039648312    3.3707206780
C        1.8688635228   -1.7415967136    3.2828036226
C       -1.2084767947   -3.0698515060    4.4926003683
C       -0.8489571187   -5.5411988221    3.1849870827
C       -1.8044556391   -4.6251829421    2.7061086789
C        1.2769913305   -1.0028857039    4.3975854594
C       -0.0020855130   -0.5246148487    4.5430945662
O       -2.6419427991   -0.7889573068    4.9314172697
O       -1.1414950840   -1.5291440627    6.7294494867
S       -1.3654795570   -1.4326158144    5.2783610517
Cl      -0.5722939795   -7.0692873897    2.3780046722
Cl      -2.7638564614   -4.9783046553    1.2857413225
H        3.4548673779   -3.7740437195    0.3497807708
H        1.0369494320   -3.2081824968    0.3093449681
H        4.8638909132   -3.0308549112    2.2542383347
H        0.0352098857   -1.9111642402    2.1479990929
H        3.8689523381   -1.7503151765    4.1118216051
H        0.3102597434   -3.7666218908    5.8594317089
H        0.6265529605   -5.9268981430    4.6996876994
H       -2.7166059479   -2.6994920199    2.9939810191
H        2.0039285705   -0.5832990989    5.0858838469
H       -0.1062896133    0.4982458169    4.8727910268
29   

C        3.4288209532   -2.9958170965    1.0921875825
C        2.0367757012   -2.8792707093    1.0609736526
C        4.1412492823   -2.5045121894    2.1891523595
C        1.3603828856   -2.2648744000    2.1207754414
C        3.4620694513   -1.9027246107    3.2547090986
C       -0.5046375450   -4.1082637556    4.9879091831
C       -0.4934019557   -5.3533654491    4.3575247483
C       -2.1944544073   -3.3562579040    3.4391426956
C        2.0632571542   -1.7704198418    3.2319095748
C       -1.3460427342   -3.0919399957    4.5229577013
C       -1.3233318581   -5.6124721301    3.2606228977
C       -2.1890025571   -4.6029253009    2.7990427955
C        1.3546585436   -1.1353721192    4.3402092845
C        0.0527815110   -0.6746322947    4.4313703258
O       -2.5524216879   -0.6976899093    5.0440872004
O       -0.9704713214   -1.5480682961    6.7268238188
S       -1.3104751745   -1.4436780373    5.2988724073
Cl      -1.2657515227   -7.1820070892    2.4882541895
Cl      -3.2511548617   -4.8757312060    1.4349918921
H        3.9541932825   -3.4647724584    0.2675643257
H        1.4791282716   -3.2639559777    0.2144276385
H        5.2220245634   -2.5877339603    2.2136544102
H        0.2801266572   -2.1811739589    2.0807426281
H        4.0334140873   -1.5267201966    4.0961813687
H        0.1492751611   -3.9266373344    5.8373052751
H        0.1694627796   -6.1313956104    4.7178821133
H       -2.8663807902   -2.5815816065    3.0790715701
H        2.0121449471   -0.7410270577    5.1086942800
H       -0.0702288813    0.3921219850    4.5433533982
