50

C      1.11321   -1.50064    1.41479
C      1.20591   -0.86815   -1.62425
C     -1.23280   -1.66730    0.39949
C     -2.11673   -1.78675    1.64038
C     -1.40867    0.26804    2.52733
C     -0.38007    0.50956    1.43179
C     -0.00040   -0.77303    0.63372
C      3.91290   -2.60470    1.71959
C      4.47332   -0.14730    1.71745
C      3.13735   -1.11509    3.62869
C      3.43051   -2.70703   -2.51059
C      1.93793   -4.42634   -1.42156
C      1.13873   -3.21711   -3.48589
C      3.45436   -1.20645    2.13498
C      1.98799   -3.12255   -2.21741
N      0.49957   -0.20728   -0.62430
O      0.90883   -2.52168    2.04238
O      1.59564   -0.31273   -2.63114
O     -0.76993    1.61944   -2.03142
O      1.20638    2.29630   -0.60218
O     -2.51836   -0.49594    2.10846
O     -0.92713    1.41473    0.44445
O      2.25134   -0.80927    1.35871
O      1.35823   -2.15830   -1.27795
S      0.06370    1.44173   -0.86416
H     -0.90283   -2.65478    0.07142
H     -1.81850   -1.21342   -0.40433
H     -3.03982   -2.31513    1.39275
H     -1.60027   -2.33354    2.43881
H     -0.88699   -0.22434    3.36426
H     -1.79040    1.23034    2.87605
H      0.51831    0.96707    1.85837
H      3.19500   -3.36970    2.01608
H      4.05652   -2.64999    0.63718
H      4.87370   -2.82054    2.19757
H      4.11362    0.85500    1.96569
H      4.65091   -0.18837    0.63925
H      5.42132   -0.31782    2.23573
H      2.75866   -0.11877    3.87845
H      2.40293   -1.86401    3.92893
H      4.05431   -1.28008    4.20289
H      3.47156   -1.78150   -3.08480
H      3.98805   -2.57060   -1.57961
H      3.92001   -3.50013   -3.08476
H      0.90486   -4.69175   -1.17949
H      2.49615   -4.33332   -0.48656
H      2.37566   -5.23691   -2.01117
H      0.10074   -3.45488   -3.23313
H      1.16203   -2.28558   -4.05259
H      1.52716   -4.02067   -4.11950
