66

C     -1.36150   -1.90073   -4.64769
C     -0.71881   -3.76403   -3.17408
C     -1.17800   -4.10373   -5.53927
C     -0.98939   -2.40463   -3.37264
C     -1.45236   -2.74868   -5.73988
C     -1.23496   -5.17300   -6.47791
C     -0.82410   -4.61970   -4.27895
C     -0.91743   -6.32995   -5.79265
C      0.00105   -0.17296  -11.22798
C     -1.59914   -4.86905   -7.90487
C     -0.55294   -1.80639   -7.90921
C     -1.54871   -2.58032  -10.08793
C     -1.76664    1.11080   -1.62051
C     -0.27848    0.98271   -1.30376
C     -1.78675   -2.34836   -7.16187
C     -0.87440   -1.46216   -2.20017
C     -0.92066   -1.40147   -9.33551
C     -2.42149   -3.55678   -7.90580
C     -0.81660   -7.74785   -6.25357
C      0.47949    2.71616  -12.75407
C      3.23622   -0.72941  -11.57583
C     -3.51154   -4.11460  -10.13659
C      0.84347    1.25203  -13.00572
C      2.40813    0.49999  -11.18682
N     -0.66293   -5.98580   -4.46246
N      0.24306   -0.94875  -10.08172
N      1.05878    0.50024  -11.75818
N     -2.75272   -3.09973   -9.33238
O     -1.13807   -0.15875  -11.71930
S     -2.47572   -0.57258   -1.83887
S      0.43870   -0.20579   -2.48942
H     -1.57849   -0.84002   -4.73901
H     -0.44205   -4.12841   -2.18811
H     -0.69990   -4.75807   -8.52195
H     -2.19177   -5.67690   -8.34432
H     -0.16961   -0.94074   -7.36035
H      0.24132   -2.56134   -7.91427
H     -1.88747   -2.25168  -11.07034
H     -0.84196   -3.40286  -10.19713
H     -2.30194    1.59272   -0.79739
H     -1.91801    1.69071   -2.53365
H      0.24127    1.93692   -1.43064
H     -0.12123    0.62963   -0.28114
H     -2.54239   -1.55037   -7.13571
H     -0.61541   -2.02787   -1.30361
H     -1.66860   -0.59573   -9.30072
H     -3.39274   -3.76508   -7.44720
H      0.20854   -8.12710   -6.17088
H     -1.46425   -8.40955   -5.66732
H     -1.11569   -7.83039   -7.30105
H     -0.46007    2.78305  -12.19891
H      1.25914    3.23147  -12.18285
H      0.35554    3.24366  -13.70530
H      2.76874   -1.65260  -11.22067
H      3.33288   -0.79799  -12.66344
H      4.24170   -0.66378  -11.14782
H     -2.83906   -4.92371  -10.41438
H     -4.33805   -4.49928   -9.53799
H     -3.89054   -3.62838  -11.03585
H      1.76207    1.17580  -13.59630
H      0.04891    0.75552  -13.56296
H      2.90353    1.40813  -11.53931
H      2.35914    0.61130  -10.09688
H     -0.41729   -6.65133   -3.74153
H      1.05991   -0.73895   -9.52304
H     -3.37730   -2.29398   -9.21861
