29   

C        1.8051221598    4.7066095990   -3.2802509359
C        1.9096616357    5.2524712780   -1.9990987641
C        1.1981868641    3.4612494896   -3.4547636253
C        1.4218091310    4.5473492974   -0.8928424842
C        0.7108758929    2.7569248836   -2.3481322244
C        0.8485549361    3.2749993255   -1.0405837177
C        0.2759675730    2.6257793909    0.1917838203
C       -0.6919813330   -1.5255706830   -0.0005333496
C        0.2354428341   -0.8698681327   -1.0321673557
C       -1.6710174936   -0.4827446812    0.5525888598
C        0.9697187533    0.3191610956   -0.4044037646
C       -0.9171521211    0.7123829038    1.1428516342
N       -0.0019222566    1.2700659541    0.1449486554
O       -0.0859388250    3.3083949159    1.1443469356
H        2.1786890093    5.2556648130   -4.1374144292
H        2.3610588201    6.2284112051   -1.8600493524
H        1.0895820752    3.0474577599   -4.4510164302
H        1.4934006034    4.9961229915    0.0931339370
H        0.1973777712    1.8186585174   -2.5206463441
H       -0.0945175278   -1.9376890644    0.8198952955
H       -1.2453344964   -2.3491883803   -0.4629188262
H       -0.3564529173   -0.5247062158   -1.8860009421
H        0.9616498743   -1.6025997281   -1.3974796728
H       -2.3062272659   -0.9339891940    1.3212400303
H       -2.3190823350   -0.1310845929   -0.2567532207
H        1.6386087403    0.7716245041   -1.1402213147
H        1.6067500562   -0.0439152804    0.4093675058
H       -1.6476897558    1.4606481419    1.4695511909
H       -0.3473246831    0.3961148743    2.0231835490
29   

C        1.8785085887    4.6475285954   -3.2837345181
C        2.0457694283    5.1570742531   -1.9934323324
C        1.1336027136    3.4817470210   -3.4782387678
C        1.4788441244    4.4951837114   -0.8980696840
C        0.5677955396    2.8210293509   -2.3822096755
C        0.7577989427    3.3052174171   -1.0702888146
C        0.1226482582    2.6820841782    0.1431417382
C       -0.6061605605   -1.5052701463   -0.0002298349
C        0.2652286591   -0.8015332542   -1.0491302699
C       -1.6089877730   -0.5085639220    0.5939227234
C        0.9714333025    0.4083329347   -0.4293109062
C       -0.8855935947    0.7065819613    1.1815933200
N       -0.0206725747    1.3103150615    0.1654569471
O       -0.3378686070    3.3865271614    1.0344786642
H        2.3137311896    5.1634281488   -4.1323730574
H        2.6077418289    6.0714235608   -1.8394750337
H        0.9829317627    3.0962879699   -4.4803701274
H        1.5977041452    4.9105077085    0.0978564936
H       -0.0388052474    1.9392289045   -2.5549294491
H        0.0298650685   -1.9036707287    0.7976481069
H       -1.1401426400   -2.3441831311   -0.4578898612
H       -0.3640358137   -0.4696231753   -1.8811981387
H        1.0081974710   -1.5010044007   -1.4446992726
H       -2.2056560009   -0.9944208875    1.3722810859
H       -2.2918088076   -0.1712225258   -0.1927049348
H        1.5967566992    0.8932686941   -1.1821712105
H        1.6494803993    0.0623559056    0.3582640587
H       -1.6363651010    1.4186168664    1.5413650399
H       -0.2792512775    0.4007757518    2.0408096182
29   

C        1.9172417617    4.5730241849   -3.2657272482
C        2.1254319918    5.0364167536   -1.9633478893
C        1.0663840774    3.4870281904   -3.4895601772
C        1.4897237337    4.4093908162   -0.8852766184
C        0.4321386993    2.8611189466   -2.4107180931
C        0.6528598945    3.3047590175   -1.0913114293
C       -0.0369390100    2.6934606582    0.0982890449
C       -0.5404261175   -1.5007785807    0.0025939341
C        0.2877761810   -0.7544774919   -1.0523565385
C       -1.5560377257   -0.5437350637    0.6396243791
C        0.9740737778    0.4646212216   -0.4284130490
C       -0.8519471317    0.6791392560    1.2351653756
N       -0.0318494650    1.3230502510    0.2065025505
O       -0.6073329095    3.4035325102    0.9178421711
H        2.4061336750    5.0621656203   -4.1008928353
H        2.7734423438    5.8876471106   -1.7871450733
H        0.8901684135    3.1358356911   -4.5000899589
H        1.6407344368    4.7847927323    0.1218930963
H       -0.2449542789    2.0343772000   -2.5954990604
H        0.1243656027   -1.8966962690    0.7778872677
H       -1.0620538597   -2.3452383574   -0.4591256938
H       -0.3690128369   -0.4258220607   -1.8642235498
H        1.0406260478   -1.4257626632   -1.4770145716
H       -2.1211059121   -1.0611778150    1.4211667782
H       -2.2660949750   -0.2099494303   -0.1241921115
H        1.5648692693    0.9792843281   -1.1893447126
H        1.6823405268    0.1271970357    0.3358426020
H       -1.6124363975    1.3600277104    1.6323544409
H       -0.2140924837    0.3734450479    2.0711229704
29   

C        1.9537025708    4.5060363553   -3.2911410719
C        2.2165423267    4.9180628704   -1.9810839297
C        1.0036880987    3.5085561901   -3.5293622970
C        1.5329467946    4.3300876313   -0.9102712197
C        0.3221703014    2.9216753929   -2.4574199262
C        0.5885659209    3.3207272298   -1.1339230950
C       -0.1414099641    2.7241810341    0.0409898917
C       -0.4752309164   -1.4453246328    0.0314761882
C        0.3247733752   -0.6782322190   -1.0309009251
C       -1.4862186901   -0.5070754463    0.7042571012
C        1.0098088244    0.5425335550   -0.4087693463
C       -0.7804055199    0.7150732265    1.2999776725
N        0.0032020765    1.3776856913    0.2551823682
O       -0.8203332478    3.4309238480    0.7753851819
H        2.4795889350    4.9653034252   -4.1207853959
H        2.9450487637    5.6988926366   -1.7935985865
H        0.7894652209    3.1950371481   -4.5449350814
H        1.7285616532    4.6627548819    0.1039778511
H       -0.4242248892    2.1580455514   -2.6475310471
H        0.2094093463   -1.8454882649    0.7869887914
H       -0.9987064454   -2.2884451234   -0.4306464871
H       -0.3513440382   -0.3477352497   -1.8260541462
H        1.0761849148   -1.3363723020   -1.4780880821
H       -2.0281516671   -1.0408922681    1.4911035194
H       -2.2169559742   -0.1704948741   -0.0386704871
H        1.5748686997    1.0726111391   -1.1790508422
H        1.7400498013    0.2089319219    0.3361540326
H       -1.5351733388    1.3810826615    1.7313775908
H       -0.1157158700    0.4048397944    2.1129004852
29   

C        1.9895110129    4.4306543409   -3.3297756066
C        2.2932148162    4.7752294222   -2.0090593531
C        0.9579351907    3.5244598854   -3.5926018566
C        1.5668771688    4.2125830212   -0.9528467427
C        0.2343293791    2.9629137050   -2.5347439841
C        0.5360635878    3.2990662160   -1.2029874935
C       -0.2392574638    2.7103111832   -0.0512225979
C       -0.4120256721   -1.4090488876    0.0438561325
C        0.3943535032   -0.6292089560   -1.0051471821
C       -1.4336586061   -0.4830378396    0.7191645705
C        1.0637222852    0.5939138032   -0.3700211282
C       -0.7383158835    0.7391765288    1.3275500614
N        0.0382313131    1.4124189910    0.2849942795
O       -1.0519163052    3.3874362912    0.5650805866
H        2.5481663993    4.8707039767   -4.1483488339
H        3.0872394641    5.4839744307   -1.8022260186
H        0.7139092415    3.2618374348   -4.6158647913
H        1.7970255597    4.4911854315    0.0701730602
H       -0.5720968714    2.2676174511   -2.7415075354
H        0.2685577495   -1.8130280603    0.8009019850
H       -0.9273703101   -2.2505030331   -0.4303478642
H       -0.2759461642   -0.2983818128   -1.8052310059
H        1.1548286334   -1.2789950859   -1.4491866687
H       -1.9756636532   -1.0270805144    1.4988738275
H       -2.1632458363   -0.1454013061   -0.0245501451
H        1.6282658216    1.1341132633   -1.1342837954
H        1.7909606760    0.2659114821    0.3802092871
H       -1.4945071202    1.3969348755    1.7688069076
H       -0.0699005611    0.4269172924    2.1365381503
29   

C        1.9597771631    4.4102609726   -3.3030147095
C        2.3244891868    4.6304122421   -1.9713058553
C        0.8475310401    3.6161171369   -3.5969084434
C        1.5784828776    4.0548856240   -0.9359369287
C        0.1047949904    3.0418475423   -2.5593021954
C        0.4674564300    3.2511289130   -1.2180446058
C       -0.3382812286    2.6448241007   -0.0958331504
C       -0.3290289395   -1.4195522084    0.0978551442
C        0.4854033366   -0.6210901508   -0.9315011185
C       -1.3826362086   -0.5166779339    0.7561661286
C        1.1142717057    0.6164795875   -0.2818339190
C       -0.7228576743    0.7185158045    1.3777610052
N        0.0518520592    1.4085301857    0.3454717757
O       -1.2834748147    3.2495577003    0.3933961880
H        2.5335599917    4.8603123827   -4.1055309745
H        3.1814626210    5.2529389159   -1.7397171053
H        0.5555865738    3.4506392232   -4.6279159263
H        1.8581498661    4.2372871900    0.0962021409
H       -0.7646168444    2.4350471164   -2.7887204403
H        0.3432407108   -1.8133214342    0.8675127420
H       -0.8180016365   -2.2690391753   -0.3898190008
H       -0.1735072374   -0.3032139477   -1.7463887175
H        1.2688111243   -1.2542658453   -1.3593002049
H       -1.9267057668   -1.0734408883    1.5253552546
H       -2.1060484862   -0.1927857905    0.0002879896
H        1.6808799297    1.1698133286   -1.0354472017
H        1.8321241811    0.3069738583    0.4850161520
H       -1.4954252189    1.3612945788    1.8127681872
H       -0.0581408372    0.4184863410    2.1943469324
29   

C        2.0135240383    4.4404972668   -3.3394677055
C        2.4312115993    4.4847832312   -2.0060939006
C        0.8140026731    3.8041185339   -3.6706060440
C        1.6517733947    3.8891113771   -1.0073823749
C        0.0384194595    3.2094883896   -2.6691505466
C        0.4557238615    3.2344389562   -1.3281257146
C       -0.4009551480    2.6217430880   -0.2491176929
C       -0.2782331748   -1.3978584405    0.1726474071
C        0.5546533497   -0.6283941994   -0.8638863870
C       -1.3707387584   -0.4891312333    0.7545086194
C        1.1374278098    0.6514740279   -0.2531814321
C       -0.7542779429    0.7849496594    1.3401302902
N        0.0389815591    1.4471841895    0.3035105214
O       -1.4451525128    3.1586354100    0.0978292197
H        2.6131458186    4.9064167770   -4.1135248382
H        3.3553256303    4.9878353347   -1.7443380044
H        0.4791083702    3.7780536995   -4.7015079616
H        1.9737852444    3.9386778915    0.0272550731
H       -0.9007000792    2.7304424875   -2.9253827515
H        0.3751079040   -1.7432742867    0.9808095154
H       -0.7340274514   -2.2778705916   -0.2925528457
H       -0.0833915360   -0.3615034929   -1.7131062887
H        1.3638061151   -1.2632974430   -1.2377531713
H       -1.9291322627   -1.0220623762    1.5302709343
H       -2.0748460406   -0.2137460690   -0.0380143965
H        1.7109770218    1.1804222815   -1.0186681715
H        1.8392159000    0.3949395224    0.5472907849
H       -1.5502524413    1.4312935446    1.7249069633
H       -0.1095100370    0.5337856135    2.1885640232
29   

C        2.0040072013    4.4822144060   -3.3445066982
C        2.4607582621    4.3647151889   -2.0288671994
C        0.7514330534    3.9697207442   -3.6920719955
C        1.6678471408    3.7296541807   -1.0656286703
C       -0.0370671375    3.3353889124   -2.7257706603
C        0.4186642098    3.1916231022   -1.4044098548
C       -0.4615813800    2.5462008064   -0.3670669440
C       -0.2496549199   -1.3958369648    0.2697918249
C        0.5921125545   -0.6574378712   -0.7817113005
C       -1.3544043558   -0.4743421379    0.8062016986
C        1.1566792587    0.6500643800   -0.2127202317
C       -0.7504336208    0.8229956325    1.3527195039
N        0.0449420713    1.4570684856    0.3002046945
O       -1.5792037560    2.9909078223   -0.1362023842
H        2.6141968788    4.9785567848   -4.0908919889
H        3.4260670782    4.7737572170   -1.7524430085
H        0.3850968237    4.0707635715   -4.7075436557
H        2.0224249329    3.6585755505   -0.0429621820
H       -1.0177502685    2.9554410154   -2.9931099200
H        0.3951374320   -1.7093364453    1.0975041418
H       -0.6944864463   -2.2939542686   -0.1708514753
H       -0.0364464797   -0.4275113345   -1.6487246763
H        1.4109668293   -1.2989272697   -1.1216789880
H       -1.9186230188   -0.9829551043    1.5939204779
H       -2.0511135124   -0.2312336066   -0.0033969952
H        1.7303197431    1.1521766582   -0.9953677105
H        1.8531197923    0.4317316338    0.6035831823
H       -1.5513341706    1.4789290290    1.7104693078
H       -0.1102707424    0.6047888798    2.2136211777
29   

C        1.9520995590    4.5616886351   -3.2966203792
C        2.4479142180    4.2845382902   -2.0202558707
C        0.6635370738    4.1491853877   -3.6430008133
C        1.6581560684    3.5898808287   -1.0962458673
C       -0.1211860346    3.4548750534   -2.7158434396
C        0.3702120281    3.1489363833   -1.4342014986
C       -0.5136245038    2.4340216378   -0.4489236937
C       -0.2068804448   -1.4248393746    0.4093633454
C        0.6235595064   -0.7225143233   -0.6741455741
C       -1.3228121855   -0.4943627492    0.9040899189
C        1.1701534882    0.6178455420   -0.1674010807
C       -0.7339407906    0.8331124192    1.3926495318
N        0.0519997049    1.4359654201    0.3146187933
O       -1.6806583471    2.7777435460   -0.3024833384
H        2.5601009273    5.1039097320   -4.0122304632
H        3.4419673061    4.6165173814   -1.7424520780
H        0.2664299846    4.3729971204   -4.6267755748
H        2.0482666535    3.4027620883   -0.1016267907
H       -1.1284051574    3.1515854701   -2.9834156660
H        0.4422038624   -1.6929679502    1.2494980321
H       -0.6400999483   -2.3470678234    0.0086907937
H       -0.0091373639   -0.5410961958   -1.5496568842
H        1.4510932349   -1.3668121339   -0.9867782097
H       -1.8813706293   -0.9746058101    1.7132798447
H       -2.0220836239   -0.2958801238    0.0844576665
H        1.7270116318    1.0877587618   -0.9810259226
H        1.8764608018    0.4484545377    0.6520656961
H       -1.5417763539    1.4951509764    1.7228631772
H       -0.0907676348    0.6598973414    2.2614431083
29   

C        1.9576457314    4.6534318046   -3.3048710626
C        2.4834967944    4.2306650454   -2.0824015178
C        0.6397864124    4.3349450096   -3.6362516945
C        1.6946936394    3.4849490725   -1.1979881731
C       -0.1435973520    3.5894616130   -2.7488446982
C        0.3730958681    3.1380447618   -1.5192833069
C       -0.5151527882    2.3495080386   -0.5965922448
C       -0.1957485393   -1.4182320239    0.4911354584
C        0.6390711761   -0.7725136437   -0.6224435105
C       -1.3094755621   -0.4601247017    0.9335640299
C        1.1886044194    0.5897315708   -0.1819591193
C       -0.7168891123    0.8878902463    1.3592035110
N        0.0777577817    1.4404006854    0.2603439713
O       -1.7123191559    2.6048727007   -0.5290699910
H        2.5656332373    5.2342045458   -3.9895689484
H        3.5016996981    4.4892180949   -1.8142184622
H        0.2192990898    4.6686873563   -4.5782795022
H        2.1177868638    3.1954378638   -0.2425233296
H       -1.1708836145    3.3555538622   -3.0104228942
H        0.4496022670   -1.6466076115    1.3457051592
H       -0.6308189237   -2.3574779986    0.1343253863
H        0.0087223319   -0.6326944297   -1.5072667307
H        1.4653806439   -1.4335655997   -0.9016497091
H       -1.8743849733   -0.8977463539    1.7622052613
H       -2.0038920523   -0.2999659726    0.1014168140
H        1.7402654881    1.0144013654   -1.0234634897
H        1.8982357416    0.4596606675    0.6418436494
H       -1.5235432064    1.5693644410    1.6508508387
H       -0.0802235170    0.7545644291    2.2396937433
29   

C        1.9379970722    4.7666769432   -3.2793091831
C        2.4990911539    4.2038503939   -2.1323674321
C        0.5950898531    4.5326155477   -3.5737640011
C        1.7207565962    3.4034737907   -1.2870287281
C       -0.1775004974    3.7324550296   -2.7257221727
C        0.3695258337    3.1418234348   -1.5677926079
C       -0.5160935644    2.2740913200   -0.7136222254
C       -0.2138863654   -1.4025497840    0.6069668129
C        0.6336748646   -0.8211195209   -0.5307168477
C       -1.3294996236   -0.4182116950    0.9791069948
C        1.1836104507    0.5613726358   -0.1601431699
C       -0.7380478128    0.9501016770    1.3384935697
N        0.0788736466    1.4458954107    0.2283664508
O       -1.7305411674    2.4451643963   -0.7227473148
H        2.5386702220    5.3885469509   -3.9336928529
H        3.5385420471    4.3956099957   -1.8909665645
H        0.1469384802    4.9712407634   -4.4582889200
H        2.1843815326    3.0175300391   -0.3869458631
H       -1.2218104056    3.5614108847   -2.9682203330
H        0.4206492225   -1.5838308638    1.4806675272
H       -0.6472575516   -2.3592277111    0.2974812262
H        0.0123021994   -0.7279428296   -1.4279721400
H        1.4604659029   -1.4985654185   -0.7658158715
H       -1.9085309680   -0.8076522847    1.8218588741
H       -2.0110031895   -0.3030748622    0.1289927427
H        1.7361482331    0.9360379136   -1.0247367709
H        1.8907469306    0.4741948903    0.6714588175
H       -1.5473670475    1.6491442335    1.5764488429
H       -0.1186226266    0.8636982633    2.2369004413
29   

C        1.8843181380    4.6142152885   -3.5347712760
C        2.1087693801    3.2655955254   -3.2594412828
C        0.8792083603    5.2956691880   -2.8508195077
C        1.3349775302    2.6027751988   -2.2986016715
C        0.1092918595    4.6286178549   -1.8925895861
C        0.3195241318    3.2657482849   -1.5883655174
C       -0.5218261705    2.6362666259   -0.5067391755
C        0.1629153713   -1.4314043405    0.6245741930
C        1.2845708819   -0.5652015800    0.0355370592
C       -1.1946185331   -0.9627524554    0.0853277703
C        1.0245151434    0.9123480338    0.3452778585
C       -1.4061411365    0.5279928076    0.3652741202
N       -0.2880606062    1.3022504040   -0.1759871354
O       -1.5363817625    3.1995287340   -0.1091435702
H        2.4821428377    5.1281742831   -4.2792062016
H        2.8799010743    2.7270019927   -3.7986702275
H        0.6926403031    6.3432889624   -3.0589118506
H        1.5230571992    1.5468214295   -2.1553994963
H       -0.6644561001    5.1810381857   -1.3684179221
H        0.1708551033   -1.3457132370    1.7166238152
H        0.3248410096   -2.4829851292    0.3671496775
H        1.3270743359   -0.7101698766   -1.0488656099
H        2.2479179525   -0.8688158226    0.4568230317
H       -2.0015594586   -1.5423853583    0.5444974452
H       -1.2309443115   -1.1306847961   -0.9958544509
H        1.8350641353    1.5289503741   -0.0507435882
H        1.0319010994    1.0558294845    1.4312902877
H       -2.3527840398    0.8435131193   -0.0871621246
H       -1.4788593850    0.6978255789    1.4451076084
29   

C        1.9442731274    4.5898244099   -3.4600813206
C        2.0409934079    3.2070855809   -3.2987280933
C        1.0114447613    5.3063177855   -2.7105684937
C        1.2120727534    2.5446799675   -2.3850198052
C        0.1859773332    4.6394970654   -1.7992914302
C        0.2739641300    3.2451463553   -1.6088681681
C       -0.6309372608    2.5946446853   -0.5969014588
C        0.2316532151   -1.3936548120    0.6690271006
C        1.3069855551   -0.5094070868    0.0239000716
C       -1.1534605916   -0.9865410316    0.1514992677
C        1.0102455533    0.9684911318    0.2974626640
C       -1.4113017264    0.5022115268    0.4007209357
N       -0.3338071959    1.3029228027   -0.1837076268
O       -1.6967363705    3.1201332713   -0.2940672374
H        2.5837506646    5.1038557620   -4.1690131005
H        2.7537372886    2.6436078986   -3.8903259659
H        0.9226469763    6.3798669508   -2.8339388793
H        1.2919362531    1.4664752870   -2.3181024119
H       -0.5366826267    5.2109092326   -1.2249462854
H        0.2645686052   -1.2749469678    1.7574935600
H        0.4224108412   -2.4464983477    0.4377940275
H        1.3232909124   -0.6854226364   -1.0565236133
H        2.2914861582   -0.7699979735    0.4246103002
H       -1.9285532509   -1.5823430720    0.6436425275
H       -1.2090070690   -1.1827971117   -0.9241424548
H        1.7880725481    1.5925172023   -0.1489609026
H        1.0535665303    1.1471948326    1.3773283715
H       -2.3796434146    0.7697133703   -0.0364842151
H       -1.4663513446    0.6958931295    1.4774496006
29   

C        2.0244825950    4.5798107120   -3.3812297712
C        2.0125687433    3.1844461680   -3.3307036914
C        1.1474834358    5.3070737332   -2.5749327182
C        1.1307516261    2.5196872818   -2.4700307991
C        0.2688256174    4.6376424179   -1.7165250280
C        0.2538436721    3.2319678160   -1.6370129072
C       -0.7185122337    2.5597071338   -0.7068303022
C        0.2716491109   -1.3418497913    0.6906433299
C        1.3120283312   -0.4458231051    0.0056056124
C       -1.1333759162   -0.9749615750    0.1974744569
C        0.9914271906    1.0304985529    0.2595239196
C       -1.4215054613    0.5107256503    0.4314668832
N       -0.3741550529    1.3262138034   -0.1870526446
O       -1.8289440985    3.0432438268   -0.5179149640
H        2.7038796295    5.0964054735   -4.0500376399
H        2.6807659007    2.6151585581   -3.9670417565
H        1.1415250344    6.3905289085   -2.6161706800
H        1.1198184584    1.4357149618   -2.4744718550
H       -0.4172499404    5.2112556930   -1.1011367996
H        0.3260530454   -1.2034287241    1.7758943342
H        0.4809352142   -2.3940633689    0.4729264981
H        1.3068633535   -0.6403976895   -1.0717030346
H        2.3111851301   -0.6784055857    0.3868194691
H       -1.8835171399   -1.5817723779    0.7141942533
H       -1.2070386935   -1.1881937128   -0.8739065004
H        1.7449220046    1.6583798693   -0.2213236681
H        1.0620736840    1.2319789304    1.3338574184
H       -2.4062908604    0.7457615649    0.0129053314
H       -1.4582607673    0.7190625572    1.5060896629
29   

C        2.0563993116    4.5566341221   -3.2888255670
C        1.9736791244    3.1633324080   -3.3478500715
C        1.2162779078    5.2636436667   -2.4258004726
C        1.0575696644    2.4799349764   -2.5394217527
C        0.3030651260    4.5754848578   -1.6195365034
C        0.2217359212    3.1717670371   -1.6503990003
C       -0.7972227827    2.4656673114   -0.7978951973
C        0.3209091899   -1.3298212594    0.7169883745
C        1.3227446297   -0.4144042018    0.0002404982
C       -1.1056521796   -0.9947931307    0.2637476404
C        0.9794813347    1.0563786440    0.2561074654
C       -1.4196904304    0.4847870273    0.5041908057
N       -0.4063923041    1.3168197263   -0.1485420159
O       -1.9472899374    2.8832148542   -0.7330793950
H        2.7615949986    5.0884343085   -3.9178350143
H        2.6129345829    2.6119024516   -4.0281386628
H        1.2644095361    6.3460600853   -2.3850124213
H        0.9877478237    1.4004321747   -2.6159892747
H       -0.3598693376    5.1305132043   -0.9633857399
H        0.4032663257   -1.1870577017    1.7998760145
H        0.5463161731   -2.3780118565    0.4959203331
H        1.2915463290   -0.6133412357   -1.0758337352
H        2.3369520467   -0.6244324598    0.3538146818
H       -1.8270750999   -1.6172462966    0.8022456749
H       -1.2053119261   -1.2117025133   -0.8048778896
H        1.7055674190    1.6942990396   -0.2527020104
H        1.0795313519    1.2677810695    1.3261222156
H       -2.4232636718    0.6949517286    0.1187802859
H       -1.4271760026    0.6956658176    1.5787630015
29   

C        2.0989296990    4.5257178827   -3.2484954755
C        1.9387690546    3.1466007997   -3.4083250046
C        1.3076736465    5.2131375062   -2.3245315875
C        0.9933970629    2.4570590410   -2.6399486660
C        0.3647487481    4.5191041666   -1.5582315665
C        0.2081405226    3.1291489630   -1.6930707911
C       -0.8442122980    2.4050396348   -0.8950834800
C        0.3295482017   -1.2700581020    0.7522143224
C        1.3086388204   -0.3507000275    0.0088011482
C       -1.1112557265   -0.9421211256    0.3387153657
C        0.9655332310    1.1194877972    0.2679699133
C       -1.4251248809    0.5364039559    0.5877353774
N       -0.4330125161    1.3659064177   -0.0996549513
O       -2.0180241303    2.7482669441   -0.9600292256
H        2.8264967752    5.0627933979   -3.8468051462
H        2.5406051573    2.6123076158   -4.1348625552
H        1.4163610495    6.2854813460   -2.2067769167
H        0.8620894479    1.3902343020   -2.7851365601
H       -0.2626446302    5.0582615796   -0.8558932716
H        0.4406933443   -1.1266874686    1.8323937272
H        0.5538031787   -2.3172725012    0.5253318647
H        1.2510449023   -0.5520365560   -1.0657839366
H        2.3326897143   -0.5548965968    0.3364926470
H       -1.8140974953   -1.5681374080    0.8972008024
H       -1.2398874187   -1.1599775036   -0.7267244530
H        1.6736086373    1.7562734960   -0.2675357525
H        1.0950460999    1.3397045269    1.3329711107
H       -2.4426780955    0.7421086883    0.2388666807
H       -1.3976828214    0.7496213211    1.6613825290
29   

C        2.1036021370    4.4907737870   -3.2036402590
C        1.8690549130    3.1392554675   -3.4732413003
C        1.3690975457    5.1375507763   -2.2057262787
C        0.9046654996    2.4360098669   -2.7418843754
C        0.4066550877    4.4304543689   -1.4763508576
C        0.1739387177    3.0681984938   -1.7274923633
C       -0.8892720635    2.3177926723   -0.9654632325
C        0.3475978045   -1.2116570733    0.7975676011
C        1.3039800829   -0.2719121756    0.0488842535
C       -1.1053921376   -0.9003435727    0.4119670688
C        0.9428594749    1.1920031079    0.3203677129
C       -1.4329054241    0.5727707362    0.6766053860
N       -0.4638988048    1.4114957359   -0.0312514368
O       -2.0758168338    2.5442644331   -1.1645103582
H        2.8460559890    5.0386118514   -3.7732268360
H        2.4284882259    2.6377341970   -4.2549438533
H        1.5378053573    6.1890031295   -2.0017964568
H        0.7163554752    1.3914457740   -2.9654910561
H       -0.1748949138    4.9382282421   -0.7140714876
H        0.4742855335   -1.0773273779    1.8771262302
H        0.5825420580   -2.2534822166    0.5569745013
H        1.2357050571   -0.4666424412   -1.0264085358
H        2.3351496369   -0.4631860573    0.3616721725
H       -1.7894916155   -1.5393397387    0.9788839260
H       -1.2508123071   -1.1129322792   -0.6524785914
H        1.6330725646    1.8407370874   -0.2249554067
H        1.0826439813    1.4127201418    1.3838932170
H       -2.4613764138    0.7713797242    0.3572408183
H       -1.3812269590    0.7818374186    1.7500901333
29   

C        2.0565428920    4.4477699211   -3.1558482100
C        1.7403813627    3.1434433530   -3.5480787715
C        1.4013644450    5.0234814605   -2.0632463003
C        0.7716494046    2.4161648933   -2.8466074454
C        0.4342729241    4.2931013145   -1.3634903976
C        0.1149901674    2.9794732965   -1.7455068607
C       -0.9363997098    2.1890865916   -1.0064844303
C        0.3889959042   -1.1655495002    0.8993528504
C        1.3185120640   -0.1964909642    0.1530970355
C       -1.0725167290   -0.9068261053    0.5051821165
C        0.9037616977    1.2563944116    0.4095582687
C       -1.4487485640    0.5570717944    0.7558127131
N       -0.5057580655    1.4164723704    0.0385988742
O       -2.1141816514    2.2558904529   -1.3332671179
H        2.8025346686    5.0141662559   -3.7021950931
H        2.2405118551    2.6973161718   -4.4003705333
H        1.6367127059    6.0380867980   -1.7619251922
H        0.5210157931    1.4085130145   -3.1606233129
H       -0.0814616918    4.7453652501   -0.5231290364
H        0.5046201077   -1.0223671230    1.9789510101
H        0.6610821673   -2.1997545620    0.6649941514
H        1.2667156257   -0.4004608634   -0.9215754481
H        2.3530588312   -0.3494213819    0.4755756224
H       -1.7371144442   -1.5634307435    1.0751265722
H       -1.2067848375   -1.1330402825   -0.5579926483
H        1.5752066941    1.9236295589   -0.1373219772
H        1.0242861500    1.4928237399    1.4719907230
H       -2.4832771247    0.7235529846    0.4375930783
H       -1.4028601148    0.7785045743    1.8270499581
29   

C        2.0604694203    4.4440652893   -3.1556830776
C        1.6625147286    3.2037609057   -3.6644145635
C        1.4914397071    4.9263194915   -1.9730880670
C        0.6971699379    2.4466717833   -2.9903364219
C        0.5275379579    4.1668962413   -1.3003987383
C        0.1238952267    2.9175151631   -1.8028996571
C       -0.9153942193    2.0836017344   -1.0971213059
C        0.4074771224   -1.1131110132    0.9826494263
C        1.3377823453   -0.1361120377    0.2473899456
C       -1.0472602962   -0.8944932822    0.5417372798
C        0.8830217437    1.3125730347    0.4596733106
C       -1.4592263082    0.5658726098    0.7525164695
N       -0.5168262311    1.4292583557    0.0394896749
O       -2.0533732153    1.9966185348   -1.5402649385
H        2.8040060812    5.0333747028   -3.6807272996
H        2.0966600701    2.8304487442   -4.5851316858
H        1.7921030571    5.8911897649   -1.5803657704
H        0.3823067845    1.4896076671   -3.3928803777
H        0.0812231466    4.5464867453   -0.3875571555
H        0.4876959464   -0.9488863880    2.0624053381
H        0.7090685204   -2.1448305161    0.7748387580
H        1.3246261336   -0.3622181698   -0.8241454861
H        2.3649231997   -0.2590882193    0.6044190752
H       -1.7140549071   -1.5537997118    1.1059266477
H       -1.1466698585   -1.1440302451   -0.5201364910
H        1.5563634440    1.9803899793   -0.0837077844
H        0.9649179526    1.5758976982    1.5194076769
H       -2.4890459450    0.7078630199    0.4079659342
H       -1.4433672839    0.8100405077    1.8196499666
29   

C        1.8501891193    4.4523159969   -3.1940662046
C        0.5185081431    4.5713998523   -2.7843852063
C        2.7419270622    3.6775800746   -2.4462221630
C        0.0784906654    3.9138730771   -1.6296048420
C        2.2998972011    3.0201624911   -1.2926830415
C        0.9593508783    3.1269401888   -0.8775414477
C        0.4508480617    2.4438189795    0.3644946993
C       -1.2071236817   -1.1875490131    0.0749883473
C       -0.6637618287   -0.4025451451   -1.1283793800
C       -1.2896918236   -0.2768344381    1.3084485995
C        0.6866006587    0.2437798318   -0.7960666247
C        0.0739894296    0.3585588536    1.5973269426
N        0.5268349420    1.0730192780    0.4028019599
O       -0.0086205865    3.0988394770    1.2918109278
H        2.1919857160    4.9659445416   -4.0857806923
H       -0.1732690790    5.1788968041   -3.3570557142
H        3.7773427546    3.5915361152   -2.7562242359
H       -0.9522151195    4.0187942452   -1.3066932983
H        2.9970004877    2.4288145710   -0.7088160823
H       -0.5417330939   -2.0302525248    0.2900829980
H       -2.1980486972   -1.5905164410   -0.1581042439
H       -1.3784423610    0.3821952855   -1.3986688244
H       -0.5549264215   -1.0685513887   -1.9898925367
H       -1.6243485676   -0.8510404806    2.1778325941
H       -2.0226319397    0.5167229891    1.1268300426
H        1.0296786549    0.8049238414   -1.6684163323
H        1.4340401076   -0.5327249593   -0.6025834899
H       -0.0066024906    1.0223413907    2.4648117764
H        0.8014652987   -0.4171675478    1.8573482263
29   

C        1.8805562773    4.5310231695   -3.1485646173
C        0.5728829234    4.7477745519   -2.7042234573
C        2.7026543493    3.6234636437   -2.4746126881
C        0.0856306654    4.0526737700   -1.5912064941
C        2.2138511576    2.9287565860   -1.3625750507
C        0.8909203757    3.1245347830   -0.9182011646
C        0.3294387656    2.4302020805    0.2927165648
C       -1.1410845218   -1.2576489844    0.1695986440
C       -0.6365680601   -0.4990188654   -1.0663266878
C       -1.2405202546   -0.3054156278    1.3694704595
C        0.6941517506    0.2054093847   -0.7746733427
C        0.1058248686    0.3820417433    1.6189259184
N        0.5249391812    1.0711664282    0.3972186980
O       -0.2424150549    3.0717039962    1.1662289650
H        2.2590066817    5.0734053962   -4.0078524040
H       -0.0634293794    5.4606591208   -3.2165265813
H        3.7219838137    3.4645356133   -2.8081999027
H       -0.9246836798    4.2370774554   -1.2399553782
H        2.8644335042    2.2414348445   -0.8326759441
H       -0.4463626128   -2.0700749392    0.4070406975
H       -2.1207957557   -1.7001732181   -0.0378773745
H       -1.3807336443    0.2507292594   -1.3558408704
H       -0.5144786158   -1.1911406319   -1.9052072695
H       -1.5482509751   -0.8574264872    2.2627885172
H       -2.0001210103    0.4576492285    1.1673113780
H        0.9973922087    0.7491045604   -1.6720248175
H        1.4729165671   -0.5364005710   -0.5689433014
H        0.0154302979    1.0733989159    2.4637427048
H        0.8599361225   -0.3613422669    1.8967667708
29   

C        1.9376477954    4.6024057369   -3.1052364802
C        0.6597672031    4.9009769146   -2.6250774258
C        2.6759779446    3.5711113143   -2.5192826346
C        0.1165237223    4.1620165922   -1.5677071882
C        2.1315705777    2.8326776848   -1.4626282900
C        0.8294446242    3.1020724471   -0.9897505518
C        0.2101696836    2.3915637721    0.1829030555
C       -1.0915163225   -1.3332909393    0.2658953132
C       -0.6327226785   -0.6143947913   -1.0099510280
C       -1.2015982359   -0.3310597623    1.4227152133
C        0.6790314211    0.1445736061   -0.7749348744
C        0.1271626510    0.4071268583    1.6179648864
N        0.5103726477    1.0558023403    0.3624348831
O       -0.4541208332    3.0147638841    1.0035873360
H        2.3597905001    5.1785633935   -3.9210789790
H        0.0901326056    5.7117574681   -3.0651887029
H        3.6762057456    3.3514650963   -2.8754499465
H       -0.8689809356    4.4146812476   -1.1889673479
H        2.7314052577    2.0592506632   -0.9957721626
H       -0.3673120290   -2.1121503798    0.5264138591
H       -2.0600109732   -1.8146209091    0.0953111619
H       -1.4059018999    0.0979352182   -1.3174575992
H       -0.5030073797   -1.3379593379   -1.8207166344
H       -1.4786389234   -0.8507033625    2.3449657958
H       -1.9875947368    0.3986624044    1.1991125744
H        0.9382529653    0.6616267986   -1.7013162063
H        1.4875381721   -0.5616592500   -0.5588896666
H        0.0289835198    1.1337904266    2.4318298171
H        0.9072340218   -0.3003321175    1.9169717559
29   

C        1.9962358385    4.6922614439   -3.0681432375
C        0.7560048416    5.0577074309   -2.5403909046
C        2.6430546470    3.5508480449   -2.5900028847
C        0.1566419748    4.2747674624   -1.5470713490
C        2.0430537007    2.7682799397   -1.5970505820
C        0.7680906892    3.0993706704   -1.0844893482
C        0.0934719097    2.3673443462    0.0458908221
C       -1.0412495893   -1.3818085059    0.3746458244
C       -0.6362096870   -0.7170833361   -0.9468046707
C       -1.1661897609   -0.3204902617    1.4750783299
C        0.6514098285    0.0994678274   -0.7835560304
C        0.1391293390    0.4730975704    1.6028131446
N        0.4849115239    1.0651225231    0.3085310300
O       -0.6531413567    2.9673497674    0.8122298395
H        2.4623041341    5.3022739374   -3.8339202720
H        0.2590401812    5.9545811378   -2.8928025754
H        3.6191109216    3.2805557723   -2.9770456664
H       -0.7980106971    4.5855681902   -1.1338775088
H        2.5928564479    1.9191548486   -1.2081623902
H       -0.2832160240   -2.1180756622    0.6613597159
H       -1.9943733837   -1.9063585157    0.2513710709
H       -1.4414509265   -0.0500338496   -1.2730679790
H       -0.4977248537   -1.4776088060   -1.7215253774
H       -1.4086349216   -0.7962463827    2.4301212851
H       -1.9817533745    0.3674965807    1.2262870225
H        0.8607607706    0.5800495837   -1.7419128840
H        1.4919259303   -0.5651227254   -0.5576577683
H        0.0280541732    1.2421600560    2.3750766576
H        0.9475889292   -0.1890852958    1.9287496165
29   

C        2.0467096555    4.7868500433   -3.0195126345
C        0.8528156120    5.2003125163   -2.4265999953
C        2.5978796970    3.5518842925   -2.6747596256
C        0.2017666280    4.3728056510   -1.5046811491
C        1.9472224494    2.7240210431   -1.7527706456
C        0.7089210699    3.1030459687   -1.1822024210
C       -0.0175743968    2.3397513217   -0.1006412949
C       -0.9907946325   -1.4163053515    0.4929081481
C       -0.6335532458   -0.8193557052   -0.8727005020
C       -1.1450170496   -0.2916290210    1.5234542425
C        0.6227909181    0.0549248182   -0.7841663659
C        0.1299566923    0.5581029775    1.5825842533
N        0.4487764766    1.0798805817    0.2510465536
O       -0.8480336169    2.9068458530    0.6027355883
H        2.5530021055    5.4310273488   -3.7297599915
H        0.4315991677    6.1686573257   -2.6724626458
H        3.5427663144    3.2430129618   -3.1075807890
H       -0.7148832059    4.7285292485   -1.0444229345
H        2.4460221657    1.8076928626   -1.4638829013
H       -0.1987357346   -2.1012202685    0.8129082989
H       -1.9231216560   -1.9855186443    0.4182310883
H       -1.4699179066   -0.2051087791   -1.2234762117
H       -0.4777740653   -1.6196726250   -1.6028004536
H       -1.3588114794   -0.7129521583    2.5103236909
H       -1.9897667766    0.3464762626    1.2412791342
H        0.7844105205    0.4889236261   -1.7737288953
H        1.4950466854   -0.5620673584   -0.5438944004
H       -0.0053511797    1.3723731843    2.3029482643
H        0.9652866525   -0.0497675461    1.9444634716
