30   

C       -1.4854503148    0.9634560501    0.9076632296
C       -1.2341568653   -0.2557733586    1.5397189759
C       -0.5037066593    1.5386444116    0.0991553622
C        5.5528354534    1.2263100581   -1.2597800924
C       -0.0016993567   -0.8969106170    1.3688503563
C        0.7285126920    0.8985436924   -0.0723278468
C        5.1995652397    0.0113290387   -1.8384494025
C        4.8896722126    1.6546005258   -0.1147632390
C        1.0067420072   -0.3261700446    0.5726806518
C        3.4642495892   -0.3164043582   -0.1651246874
C        4.1827639573   -0.7788846182   -1.2957705160
C        3.8575026331    0.8967286812    0.4419745199
C        2.2913810884   -1.0575555883    0.3842140039
C        3.8259360407   -3.1611580886   -1.1471101922
C        3.5598025168   -3.1145711482    0.3600467668
N        2.3393163354   -2.3409432714    0.6754377104
N        3.9382353439   -2.0142876831   -1.8967858795
O        3.9824477568   -4.2220745272   -1.7310568296
F        3.2554265989    1.3460254026    1.5678910886
H       -2.4412442343    1.4580455270    1.0395440404
H       -1.9960913576   -0.7101711451    2.1628118173
H       -0.6985482443    2.4799530764   -0.4020509773
H        6.3487012087    1.8259588856   -1.6892907455
H        0.1592924195   -1.8455296728    1.8701546456
H        1.4601583366    1.3604454438   -0.7250860406
H        5.7387435420   -0.3302948356   -2.7145527436
H        5.1701036600    2.5883987809    0.3580418645
H        3.4378069206   -4.1412086860    0.7163512459
H        4.4288064478   -2.6890532932    0.8697731616
H        4.2578055083   -2.1997565386   -2.8387613976
30   

C       -1.4479579298    1.0163129764    0.9392884746
C       -1.1304375149   -0.1085343241    1.7044516079
C       -0.5603893849    1.4587859806   -0.0441792541
C        5.5529694911    1.2402761740   -1.1688070768
C        0.0729570879   -0.7897681393    1.4875012855
C        0.6425568293    0.7778016946   -0.2605672699
C        5.2415841737    0.0296108278   -1.7791362798
C        4.8295064914    1.6471574828   -0.0532955870
C        0.9777853201   -0.3570938044    0.5053286860
C        3.4370081711   -0.3438618499   -0.1901524682
C        4.2097048262   -0.7797006663   -1.2961183223
C        3.7816768400    0.8705275598    0.4450481748
C        2.2481215831   -1.1034158293    0.2910800637
C        3.8355678217   -3.1682457667   -1.2352306510
C        3.4986708370   -3.1685031355    0.2576045939
N        2.2729841048   -2.3937344550    0.5478920241
N        3.9980392200   -1.9997413999   -1.9402448752
O        4.0098044877   -4.2111096730   -1.8459880635
F        3.1218678898    1.3034406445    1.5447169825
H       -2.3811016638    1.5423230435    1.1068867444
H       -1.8174074268   -0.4568564407    2.4673160936
H       -0.8048869247    2.3290080478   -0.6426274679
H        6.3606991531    1.8548967047   -1.5525375270
H        0.2991938617   -1.6620176305    2.0918495561
H        1.3134041650    1.1322445625   -1.0353768111
H        5.8234833772   -0.2919042107   -2.6352815739
H        5.0738278571    2.5793751891    0.4421052316
H        3.3520304663   -4.2052832399    0.5729340699
H        4.3474168210   -2.7696585180    0.8202479479
H        4.3615300604   -2.1589731242   -2.8710557650
30   

C       -1.4080214549    1.0523454779    0.9474811347
C       -0.9993847479    0.0429990941    1.8235611993
C       -0.6373317402    1.3465849325   -0.1803410950
C        5.5647432087    1.2492402682   -1.0697707109
C        0.1766908086   -0.6726767159    1.5705439685
C        0.5382022413    0.6303871376   -0.4314281858
C        5.2886594118    0.0489626971   -1.7159581872
C        4.7894245494    1.6307207652    0.0191637812
C        0.9550072189   -0.3946449240    0.4381513116
C        3.4220056168   -0.3697718904   -0.2112912901
C        4.2425907890   -0.7763588954   -1.2943044258
C        3.7269025691    0.8380616709    0.4574808440
C        2.2192823203   -1.1462883211    0.2003763477
C        3.8577860919   -3.1673714435   -1.3252366584
C        3.4581671613   -3.2159925654    0.1506778912
N        2.2274597317   -2.4423656983    0.4212964113
N        4.0611378621   -1.9776556295   -1.9819798287
O        4.0499594773   -4.1901871574   -1.9638212075
F        3.0181547801    1.2502432818    1.5343569818
H       -2.3195881169    1.6058019419    1.1430499020
H       -1.5931747298   -0.1870681830    2.7008609577
H       -0.9498561734    2.1302156415   -0.8611134546
H        6.3834915354    1.8767100448   -1.4064239130
H        0.4846201356   -1.4526869833    2.2589340702
H        1.1292049865    0.8694800686   -1.3088898097
H        5.9080324614   -0.2505270863   -2.5535841685
H        5.0035653220    2.5560934241    0.5406437107
H        3.2922258290   -4.2619428076    0.4233097894
H        4.2859722266   -2.8440991603    0.7609306103
H        4.4643676152   -2.1090501121   -2.9007135427
30   

C       -1.3746536508    1.0758016222    0.9324043359
C       -0.8515937052    0.2233005094    1.9089075454
C       -0.7362016423    1.1874631154   -0.3057886230
C        5.5859744060    1.2530614325   -0.9538260364
C        0.3055413916   -0.5188820414    1.6451010390
C        0.4204512915    0.4442015510   -0.5661724849
C        5.3296187184    0.0716241747   -1.6408521909
C        4.7787833265    1.6039728339    0.1217457292
C        0.9461565219   -0.4278208822    0.4029578978
C        3.4219240389   -0.3918800853   -0.2007514707
C        4.2726851677   -0.7654876441   -1.2729915712
C        3.7050636095    0.7992547434    0.5078709194
C        2.2093964419   -1.1829946519    0.1494472314
C        3.8785592263   -3.1541949526   -1.4019733401
C        3.4354021794   -3.2565775524    0.0583477943
N        2.2028337795   -2.4848509593    0.3249452934
N        4.1090546960   -1.9421813097   -2.0066560994
O        4.0822821348   -4.1531089867   -2.0739009803
F        2.9680325923    1.1848773797    1.5751677113
H       -2.2711442220    1.6505565857    1.1360397011
H       -1.3408640734    0.1370203723    2.8723936978
H       -1.1355532865    1.8513858874   -1.0640385720
H        6.4129768938    1.8902808843   -1.2494464086
H        0.7086357095   -1.1750330706    2.4091240941
H        0.9148641626    0.5425987060   -1.5265218465
H        5.9721416856   -0.2029830504   -2.4695053521
H        4.9760177968    2.5153381144    0.6736359497
H        3.2548027135   -4.3110169140    0.2851744577
H        4.2477460560   -2.9151196769    0.7059819934
H        4.5385334842   -2.0421853894   -2.9174278587
30   

C       -1.3916792572    1.0869762507    0.8892935166
C       -0.7309612007    0.4670968308    1.9534267617
C       -0.8886696795    0.9585162148   -0.4079764457
C        5.6274698567    1.2245433577   -0.8277631831
C        0.4282221942   -0.2815938622    1.7183203077
C        0.2705461453    0.2090741601   -0.6375333577
C        5.3444614943    0.0817805927   -1.5668220585
C        4.8311094573    1.5415937510    0.2657071453
C        0.9367403781   -0.4283160278    0.4227237435
C        3.4308166150   -0.4093865093   -0.1413538925
C        4.2715066446   -0.7493698712   -1.2335843509
C        3.7417601416    0.7426644773    0.6189776251
C        2.2006859716   -1.1926485338    0.1667090963
C        3.8312832733   -3.1212423020   -1.4766334465
C        3.3800940650   -3.2848891740   -0.0245710915
N        2.1621528201   -2.5007881192    0.2705501215
N        4.0823487604   -1.8858063426   -2.0227730492
O        4.0180394344   -4.0901689210   -2.1957459395
F        3.0205470506    1.0968918593    1.7064071772
H       -2.2901869544    1.6662933670    1.0698181583
H       -1.1153226153    0.5659176847    2.9622005004
H       -1.3955321768    1.4397067433   -1.2367097253
H        6.4661274528    1.8579850250   -1.0974996753
H        0.9371396568   -0.7580782483    2.5491852042
H        0.6582313043    0.1178454417   -1.6463839286
H        5.9781045620   -0.1669341292   -2.4103407793
H        5.0489254187    2.4225991371    0.8576823555
H        3.1761396543   -4.3449156151    0.1505190341
H        4.1958533933   -2.9913664496    0.6419617434
H        4.5098124095   -1.9500402013   -2.9377109966
30   

C       -1.2749172509    0.7195762917    0.6763969316
C       -0.4807090947    0.4407226585    1.7910274891
C       -0.8366928474    0.3437832330   -0.5949560667
C        5.8629402415    1.3333158960   -0.7000651940
C        0.7486887373   -0.2099599020    1.6321441983
C        0.3933071824   -0.3055743099   -0.7464269157
C        5.5994204463    0.2441960264   -1.5210352644
C        5.0835581062    1.5337791692    0.4315783940
C        1.2052906993   -0.5911517019    0.3652192855
C        3.7296417080   -0.4215961943   -0.1028574088
C        4.5609082604   -0.6454844360   -1.2335427373
C        4.0275495028    0.6743620401    0.7422024894
C        2.5272318271   -1.2719643713    0.1447278193
C        4.2256311341   -3.0085349196   -1.6420396782
C        3.7892461839   -3.2941870568   -0.2044856639
N        2.5376969283   -2.5846372594    0.1340297113
N        4.3994506167   -1.7260517816   -2.1034188420
O        4.4562692652   -3.9142214808   -2.4277864056
F        3.3335547925    0.9184132297    1.8739182429
H       -2.2284631962    1.2210981666    0.7978634854
H       -0.8185074130    0.7235451593    2.7815121633
H       -1.4493084357    0.5528377999   -1.4646073664
H        6.6746663525    2.0138582942   -0.9352456399
H        1.3423306863   -0.4372393202    2.5104426823
H        0.7251298114   -0.5954739655   -1.7376562508
H        6.2221667503    0.0834201770   -2.3935176762
H        5.2893008956    2.3702919238    1.0888251073
H        3.6313797098   -4.3715891358   -0.1036272799
H        4.5920047278   -3.0105020115    0.4818090451
H        4.8163818030   -1.7047165524   -3.0251826613
30   

C       -1.3051599419    0.6953326204    0.5625798191
C       -0.4303052559    0.7247499118    1.6494534893
C       -0.9341104106    0.0198690364   -0.5996836469
C        5.9230811335    1.3024168006   -0.5798971988
C        0.8148485308    0.0883425282    1.5708807315
C        0.3112427003   -0.6123668315   -0.6717413121
C        5.5590151076    0.3103040979   -1.4807242396
C        5.2456546457    1.4014528134    0.6280998832
C        1.2153879045   -0.5823349093    0.4074991836
C        3.7654880521   -0.4308156642    0.0001048458
C        4.5119778189   -0.5713187442   -1.2010162988
C        4.1846272018    0.5459029792    0.9340772745
C        2.5418808964   -1.2651962186    0.2249849833
C        4.1328269635   -2.8918821839   -1.7479434322
C        3.7603271645   -3.2714690255   -0.3124258886
N        2.5287151591   -2.5739397642    0.1134422786
N        4.2694086672   -1.5797080529   -2.1362017451
O        4.3268444242   -3.7442812075   -2.6003961536
F        3.6198610453    0.6665354766    2.1514658774
H       -2.2706336351    1.1848125510    0.6244515488
H       -0.7210829298    1.2309866745    2.5629281526
H       -1.6100823479   -0.0179103209   -1.4464274192
H        6.7400600974    1.9787279458   -0.8090468211
H        1.4303377363    0.0886760695    2.4587710572
H        0.5872115197   -1.1362395100   -1.5809651426
H        6.1125164550    0.2151406117   -2.4077981989
H        5.5406987852    2.1511317840    1.3526493555
H        3.5958462493   -4.3519332693   -0.2748231528
H        4.5930173653   -3.0368086164    0.3566259838
H        4.6342098451   -1.4980960357   -3.0764883967
30   

C       -1.3625075960    0.6233451400    0.5240573141
C       -0.3881170736    0.9395218332    1.4703357621
C       -1.0663471024   -0.2914018581   -0.4843336875
C        5.9468424166    1.3164318115   -0.4267234360
C        0.8805870571    0.3491092431    1.4055235977
C        0.2015130151   -0.8777144430   -0.5442865806
C        5.5133833661    0.4476373709   -1.4217476535
C        5.3468351864    1.2665832067    0.8267363375
C        1.2103537855   -0.5631871582    0.3913634498
C        3.7753018618   -0.4187882330    0.0482782042
C        4.4619227433   -0.4423234864   -1.1911355317
C        4.2842842085    0.3958280458    1.0824575901
C        2.5378759208   -1.2458880739    0.2399356253
C        4.0633449426   -2.7106993594   -1.8922500650
C        3.7487711329   -3.1995620992   -0.4722536653
N        2.5262815150   -2.5458540219    0.0429044372
N        4.1712925256   -1.3707227377   -2.1925691003
O        4.2301327256   -3.4983992112   -2.8102331823
F        3.8123717347    0.3195793553    2.3447995492
H       -2.3445872572    1.0798849192    0.5757364640
H       -0.6164604495    1.6415541474    2.2642718817
H       -1.8176856913   -0.5514566470   -1.2213822206
H        6.7668221545    2.0011550545   -0.6169007941
H        1.5747770542    0.6201603880    2.1833158735
H        0.4101465108   -1.5906981182   -1.3353639490
H        6.0202606375    0.4488297053   -2.3798413526
H        5.7099850063    1.9023604891    1.6253843619
H        3.5939156125   -4.2815471692   -0.5068854228
H        4.6031096750   -3.0056805462    0.1825818143
H        4.4988635460   -1.2184236548   -3.1377150046
30   

C       -1.3953832231    0.5925460378    0.5638207613
C       -0.3302350182    1.1088888322    1.2999654872
C       -1.1811335115   -0.4974054025   -0.2763602247
C        5.9682367317    1.3169302366   -0.2931129703
C        0.9455428988    0.5403426082    1.1948234301
C        0.0938552855   -1.0624095423   -0.3772763877
C        5.5344095520    0.5144045590   -1.3435636883
C        5.3546231419    1.2007049480    0.9505759667
C        1.1951930337   -0.5529891977    0.3490428314
C        3.7675022691   -0.4052246380    0.0524995867
C        4.4685578584   -0.3724490603   -1.1760300532
C        4.2765556353    0.3322970524    1.1412328862
C        2.5225424563   -1.2307163947    0.1990942365
C        4.0686038577   -2.6046129262   -1.9747970939
C        3.7524365158   -3.1510454778   -0.5747099301
N        2.5242455420   -2.5254254530   -0.0369187647
N        4.1827794828   -1.2533630621   -2.2201456273
O        4.2368901477   -3.3552825309   -2.9230859789
F        3.7789203409    0.1807475130    2.3896759161
H       -2.3825238107    1.0336025088    0.6451139181
H       -0.4908707889    1.9559774316    1.9571999236
H       -2.0019174662   -0.9105680088   -0.8516950448
H        6.8004193252    1.9989142946   -0.4337469888
H        1.7216070162    0.9975595681    1.7868079563
H        0.2275017067   -1.9128727145   -1.0378693880
H        6.0538991375    0.5616269832   -2.2937174729
H        5.7191489879    1.7804821030    1.7901733966
H        3.6042138877   -4.2317056514   -0.6524526080
H        4.6038626889   -2.9790512726    0.0899780678
H        4.5168883230   -1.0619823684   -3.1558347738
30   

C       -1.4013457256    0.6020708974    0.6177970542
C       -0.2712514079    1.2484959761    1.1151503306
C       -1.2580966675   -0.6192101816   -0.0359400985
C        5.9829393877    1.3016237052   -0.1745748213
C        0.9979020472    0.6771238559    0.9595581623
C        0.0105150981   -1.1873400578   -0.1882313878
C        5.5796050332    0.5336734371   -1.2628599765
C        5.3173630443    1.1646532299    1.0401711977
C        1.1767213221   -0.5509647835    0.3009932529
C        3.7504551548   -0.3999427001    0.0392127777
C        4.4971497655   -0.3432096324   -1.1608124463
C        4.2208436780    0.3077774353    1.1644244292
C        2.5016625607   -1.2251632483    0.1332735185
C        4.1046175942   -2.5465414648   -2.0356925620
C        3.7521179137   -3.1282382303   -0.6588422849
N        2.5127352916   -2.5148094072   -0.1321448484
N        4.2388704256   -1.1905125964   -2.2388219435
O        4.2928096214   -3.2722664866   -2.9995558420
F        3.6488383906    0.1502402186    2.3812429895
H       -2.3835150700    1.0454670718    0.7375011374
H       -0.3756425381    2.2009421868    1.6223537064
H       -2.1295582057   -1.1324411976   -0.4265200679
H        6.8291172536    1.9749398606   -0.2643963337
H        1.8282617233    1.2454599944    1.3499604693
H        0.0807268573   -2.1413324586   -0.7002613801
H        6.1360171852    0.5992837257   -2.1907747233
H        5.6523781017    1.7211216724    1.9074269409
H        3.6040530637   -4.2060791527   -0.7690361335
H        4.5876416273   -2.9766134819    0.0304985851
H        4.6018509239   -0.9749351413   -3.1583572073
30   

C       -1.3883054360    0.6303820049    0.6684331244
C       -0.2218460379    1.3520086237    0.9164625423
C       -1.2969221913   -0.6830127232    0.2135485429
C        5.9871165035    1.2652444175   -0.0644506726
C        1.0321794345    0.7632588111    0.7118254896
C       -0.0433015572   -1.2687766186    0.0110974753
C        5.6288852666    0.5164343921   -1.1815425145
C        5.2559187136    1.1277191463    1.1116155244
C        1.1572832009   -0.5583686788    0.2527167738
C        3.7284524726   -0.4144806634    0.0166424526
C        4.5319507293   -0.3479801779   -1.1462783550
C        4.1434908076    0.2849391479    1.1693195047
C        2.4754256581   -1.2336682763    0.0526186938
C        4.1432380093   -2.5223292899   -2.0948390171
C        3.7323962385   -3.1320833874   -0.7477988412
N        2.4839597368   -2.5162822417   -0.2460081273
N        4.3106681747   -1.1650825079   -2.2551504573
O        4.3575589485   -3.2261350221   -3.0694408524
F        3.4859947150    0.1475787235    2.3448119061
H       -2.3589214546    1.0871248850    0.8261491407
H       -0.2865278962    2.3762979859    1.2656482350
H       -2.1972694973   -1.2541264053    0.0171026475
H        6.8452122382    1.9283058987   -0.1030102242
H        1.8928856065    1.3894689542    0.8988866288
H       -0.0149179099   -2.2950590088   -0.3395336593
H        6.2308089999    0.5885056667   -2.0801230793
H        5.5480805346    1.6759656046    1.9994094528
H        3.5745253980   -4.2046227068   -0.8910523596
H        4.5450277027   -3.0100409496   -0.0260190854
H        4.7143403322   -0.9317750249   -3.1531534481
30   

C       -1.3666753959    0.6558654999    0.7264525482
C       -0.1966050531    1.4144006988    0.7282207162
C       -1.2970178561   -0.7120773012    0.4692630565
C        5.9774100972    1.2272845790    0.0311077267
C        1.0397534285    0.8075293991    0.4757963760
C       -0.0606964823   -1.3159279467    0.2182133524
C        5.6694265429    0.4891367514   -1.1077299629
C        5.1817346897    1.0958374598    1.1648334279
C        1.1405478513   -0.5688355882    0.2159807932
C        3.7055330177   -0.4373717280   -0.0122069439
C        4.5638132018   -0.3647564801   -1.1360101802
C        4.0597434615    0.2642998325    1.1603425496
C        2.4475223083   -1.2448981690   -0.0352086912
C        4.1704814035   -2.5062130784   -2.1634559668
C        3.6947345180   -3.1441373412   -0.8530110147
N        2.4432281563   -2.5174967521   -0.3735295094
N        4.3811214670   -1.1509834778   -2.2739578381
O        4.4066297754   -3.1859342423   -3.1500162800
F        3.3293372569    0.1457696602    2.2938346243
H       -2.3240177949    1.1262213157    0.9209574908
H       -0.2455319733    2.4800116770    0.9214092359
H       -2.2007814734   -1.3108619096    0.4642294672
H        6.8428555670    1.8817964360    0.0410451018
H        1.9088944325    1.4523310818    0.4651588263
H       -0.0443420764   -2.3835745169    0.0261724695
H        6.3155494499    0.5642411072   -1.9748277922
H        5.4284341759    1.6419973361    2.0676126481
H        3.5193109125   -4.2080821400   -1.0347836442
H        4.4830552411   -3.0626968096   -0.0992977692
H        4.8270606096   -0.9016405205   -3.1473339244
30   

C       -1.3429739164    0.6747018752    0.7788457458
C       -0.2022162956    1.4436071135    0.5455438070
C       -1.2602959674   -0.7161633506    0.7161068884
C        5.9605389257    1.1976761931    0.1148708445
C        1.0184729035    0.8235883441    0.2530448900
C       -0.0392791120   -1.3331218047    0.4242637058
C        5.6995577439    0.4684054591   -1.0410557846
C        5.1088831254    1.0719596336    1.2073486648
C        1.1291328790   -0.5746078033    0.1911146548
C        3.6845206585   -0.4559019296   -0.0397823521
C        4.5897518217   -0.3764179001   -1.1268095020
C        3.9819067572    0.2497280527    1.1470057152
C        2.4217998663   -1.2480046602   -0.1205837588
C        4.1846862354   -2.4796931161   -2.2377665236
C        3.6486944620   -3.1475969528   -0.9678278123
N        2.3993830610   -2.5080178156   -0.5008561163
N        4.4420519231   -1.1299919809   -2.2919326021
O        4.4346835923   -3.1314664780   -3.2396243086
F        3.1942200891    0.1433531400    2.2425925519
H       -2.2887783762    1.1545950719    1.0040276402
H       -0.2627906900    2.5252037561    0.5864827837
H       -2.1421453913   -1.3215650250    0.8925864203
H        6.8297524843    1.8450097971    0.1687064395
H        1.8735545736    1.4601679023    0.0585667693
H       -0.0039644076   -2.4166993740    0.3822271694
H        6.3835516659    0.5470988099   -1.8782781023
H        5.3141759982    1.6162890346    2.1215327190
H        3.4527889897   -4.1996623905   -1.1927617617
H        4.4146457245   -3.1136048851   -0.1879239483
H        4.9254154481   -0.8643385160   -3.1402513759
30   

C       -1.3258179159    0.6897535201    0.8275307991
C       -0.2425817594    1.4405039391    0.3661345644
C       -1.1988084256   -0.6934568200    0.9663606470
C        5.9463825452    1.1518970491    0.2131728268
C        0.9659650511    0.8097103227    0.0480803237
C        0.0102754475   -1.3213089016    0.6483097831
C        5.7239190677    0.4295157256   -0.9547456296
C        5.0471694898    1.0369080608    1.2675370579
C        1.1181926578   -0.5779453543    0.1932471059
C        3.6627337429   -0.4808333631   -0.0367872791
C        4.6087211560   -0.4018721047   -1.0896224922
C        3.9141333702    0.2282132668    1.1594331956
C        2.3944551000   -1.2527502402   -0.1713677642
C        4.1865380158   -2.4686294440   -2.2722628097
C        3.5941547173   -3.1580657746   -1.0407663489
N        2.3504084653   -2.5011029534   -0.5840962330
N        4.4905329330   -1.1281913153   -2.2756291340
O        4.4459793385   -3.0965819642   -3.2868125206
F        3.0802261820    0.1367974002    2.2216385193
H       -2.2627937444    1.1773232437    1.0722403731
H       -0.3394754804    2.5139143310    0.2496312219
H       -2.0374959110   -1.2837451622    1.3176830812
H        6.8199856336    1.7889927326    0.3046709727
H        1.7851460895    1.4159628066   -0.3224215091
H        0.0888501783   -2.3980521866    0.7563109069
H        6.4404171515    0.5064756790   -1.7644827141
H        5.2187321454    1.5799367984    2.1894062273
H        3.3764587268   -4.1967891893   -1.3044070470
H        4.3385505655   -3.1703027730   -0.2396802128
H        5.0080325390   -0.8527267640   -3.1003824363
30   

C       -1.3046314555    0.6989611494    0.8457365910
C       -0.3092782144    1.4099370932    0.1702021568
C       -1.0972374189   -0.6433382512    1.1725740991
C        5.9614731481    1.1062705300    0.2981805470
C        0.8932033564    0.7807096556   -0.1727417035
C        0.1057546375   -1.2697538862    0.8289764876
C        5.7649608564    0.4110751156   -0.8903527450
C        5.0254038082    0.9884165418    1.3191253498
C        1.1242359914   -0.5607883036    0.1655193635
C        3.6625071069   -0.4870004501   -0.0558214265
C        4.6411739845   -0.3982341342   -1.0784192536
C        3.8834517787    0.2011591328    1.1593810520
C        2.3878584588   -1.2329274708   -0.2481526963
C        4.2005234106   -2.4127212217   -2.3492436514
C        3.5593117738   -3.1334639919   -1.1618061609
N        2.3227943655   -2.4643622459   -0.7038357719
N        4.5443200978   -1.0836115772   -2.2907578203
O        4.4674124709   -3.0066798985   -3.3821290944
F        3.0153284095    0.1091591775    2.1937216614
H       -2.2372954336    1.1847208329    1.1097257048
H       -0.4707023056    2.4490642504   -0.0930922422
H       -1.8696253629   -1.2029304969    1.6878310698
H        6.8417091938    1.7268127339    0.4305456376
H        1.6502882612    1.3434261617   -0.7081080536
H        0.2526292883   -2.3160359022    1.0754807404
H        6.5073310232    0.4943577584   -1.6757738002
H        5.1741374287    1.5130817226    2.2554645803
H        3.3210999074   -4.1544507198   -1.4728058973
H        4.2840093913   -3.1986719043   -0.3454034323
H        5.0913876549   -0.7917833905   -3.0904445645
30   

C       -1.3150879850    0.7057065144    0.8560837276
C       -0.4309256885    1.3345410627   -0.0254417276
C       -0.9981861713   -0.5512220594    1.3786988166
C        5.9757529396    1.0336770650    0.4057150303
C        0.7711076543    0.7097294566   -0.3780236384
C        0.2041435191   -1.1732916409    1.0246679769
C        5.7914922132    0.3727496523   -0.8038402834
C        5.0139896035    0.9117903295    1.4016359435
C        1.1110176950   -0.5398070123    0.1575497092
C        3.6531758908   -0.5034982204   -0.0379993061
C        4.6554687947   -0.4071110359   -1.0374668188
C        3.8597387409    0.1531804344    1.1975262328
C        2.3687059663   -1.2163693691   -0.2797109710
C        4.1913359321   -2.3670076740   -2.3868434063
C        3.5085558141   -3.1124884453   -1.2390932931
N        2.2813695476   -2.4288222795   -0.7781115534
N        4.5695791426   -1.0511094917   -2.2733190632
O        4.4619410658   -2.9298576956   -3.4360323133
F        2.9683928245    0.0574792126    2.2113556670
H       -2.2476196238    1.1875046864    1.1276798357
H       -0.6791131666    2.3045668461   -0.4409368626
H       -1.6858747979   -1.0485601062    2.0531725371
H        6.8652582186    1.6321445117    0.5730260452
H        1.4443040010    1.2003677356   -1.0726909061
H        0.4385364023   -2.1561947091    1.4191491229
H        6.5523251579    0.4611723523   -1.5707949199
H        5.1515774000    1.4115493073    2.3531581845
H        3.2499367061   -4.1147897002   -1.5918187864
H        4.2156948012   -3.2267627301   -0.4127765482
H        5.1405716131   -0.7461955057   -3.0511091941
30   

C       -1.3380805869    0.7475603208    0.8333259541
C       -0.5734157017    1.2320268228   -0.2323588388
C       -0.9009357313   -0.3694966389    1.5512511163
C        5.9911150629    0.9683625348    0.5318690421
C        0.6306379848    0.6048018914   -0.5737384607
C        0.3028284028   -0.9947156740    1.2075550453
C        5.8052672364    0.3605445312   -0.7046401098
C        5.0193896799    0.8227403283    1.5144662589
C        1.0910485077   -0.4983622295    0.1556522339
C        3.6456737061   -0.5101658929    0.0090855299
C        4.6580368531   -0.3892642635   -0.9783586712
C        3.8538604470    0.0933520053    1.2712678435
C        2.3503728990   -1.1873814446   -0.2767086218
C        4.1722136732   -2.2801322967   -2.4165356114
C        3.4607067910   -3.0606897048   -1.3106873719
N        2.2426271132   -2.3703697624   -0.8363062415
N        4.5718731034   -0.9774267818   -2.2418935095
O        4.4438307008   -2.8014212869   -3.4867256114
F        2.9551136480   -0.0262815137    2.2750700882
H       -2.2719660387    1.2312089754    1.0968697106
H       -0.9163321852    2.0903123137   -0.7988953371
H       -1.4968224201   -0.7565905378    2.3699279579
H        6.8889470107    1.5446274701    0.7297765470
H        1.2109302911    0.9777412682   -1.4107746427
H        0.6309920719   -1.8717449991    1.7547317053
H        6.5732252654    0.4678754014   -1.4620049759
H        5.1576411019    1.2816574137    2.4862333827
H        3.1853931450   -4.0408182908   -1.7100181628
H        4.1547967584   -3.2255439416   -0.4818752747
H        5.1561353936   -0.6493622611   -3.0001611770
30   

C       -1.3592833472    0.7318287803    0.7412170347
C       -0.7068328476    0.9999000325   -0.4659973288
C       -0.8052413911   -0.1813200539    1.6432707925
C        6.0146301542    0.8814942501    0.6285561156
C        0.5047877718    0.3655113329   -0.7641132626
C        0.4053324636   -0.8158819357    1.3427807133
C        5.8049789944    0.3500782662   -0.6381856785
C        5.0630963260    0.6724413143    1.6186492822
C        1.0873620597   -0.5235980986    0.1491803092
C        3.6572194063   -0.5665734835    0.0614889492
C        4.6532723392   -0.3838354532   -0.9346529437
C        3.8929820577   -0.0423780165    1.3542807090
C        2.3549684202   -1.2225114471   -0.2563019269
C        4.1617313326   -2.1933385528   -2.4691871945
C        3.4562562589   -3.0332227728   -1.4038331535
N        2.2406256617   -2.3635775993   -0.8955479304
N        4.5483754592   -0.8970923119   -2.2291687986
O        4.4305494426   -2.6553700538   -3.5669671485
F        3.0214641589   -0.2253690337    2.3700712230
H       -2.2983174663    1.2220981764    0.9722648736
H       -1.1425819655    1.6946757032   -1.1749744694
H       -1.3169167153   -0.4050059959    2.5724227375
H        6.9154446137    1.4468001779    0.8437503227
H        0.9968041829    0.5658099484   -1.7098796817
H        0.8150297934   -1.5431776765    2.0349204897
H        6.5579892763    0.5049075182   -1.4023100355
H        5.2211191215    1.0701164161    2.6141006681
H        3.1785341495   -3.9905468932   -1.8536067789
H        4.1523899645   -3.2406758020   -0.5863818100
H        5.1221314334   -0.5236830882   -2.9743606767
30   

C       -1.3743751967    0.7201746475    0.6212143110
C       -0.8269821230    0.7175994752   -0.6641961616
C       -0.7135113841    0.0563782818    1.6581142450
C        6.0545231442    0.7935953464    0.6739229294
C        0.3906604434    0.0718642845   -0.9058593123
C        0.5029533267   -0.5923698628    1.4155287385
C        5.7823695671    0.3795616865   -0.6233675131
C        5.1635819780    0.4708207256    1.6887202556
C        1.0926369648   -0.5527874913    0.1381022851
C        3.6785600564   -0.6269425460    0.0971031487
C        4.6244271414   -0.3417371623   -0.9250506015
C        3.9881740831   -0.2346677888    1.4209640241
C        2.3643464633   -1.2594825517   -0.2413071938
C        4.1225820437   -2.0491037809   -2.5602302335
C        3.4617459514   -2.9719564910   -1.5345114347
N        2.2481125319   -2.3499969001   -0.9647100705
N        4.4683875050   -0.7556950195   -2.2495932133
O        4.3757726913   -2.4333276688   -3.6912300782
F        3.1949666624   -0.5433485670    2.4662299391
H       -2.3176107361    1.2205373281    0.8096394917
H       -1.3480047286    1.2110330610   -1.4768034358
H       -1.1510065833    0.0305450135    2.6496692269
H        6.9594269078    1.3505791457    0.8936417085
H        0.7993199516    0.0621575460   -1.9109260714
H        0.9566979531   -1.1507919573    2.2236196222
H        6.4926854864    0.6136639998   -1.4079359914
H        5.3757245417    0.7686176228    2.7087003495
H        3.1883095119   -3.9033582655   -2.0380860111
H        4.1799664250   -3.2167822594   -0.7470030518
H        5.0059837094   -0.3170794035   -2.9861486503
30   

C       -1.3457823215    0.7960206765    0.5082828544
C       -0.9576206565    0.4088673983   -0.7749734472
C       -0.5347657513    0.4817680424    1.6001705500
C        6.0158712677    0.6980368042    0.7981075778
C        0.2400330362   -0.2886128289   -0.9646328797
C        0.6642536318   -0.2163842019    1.4124880249
C        5.6760266640    0.4816783578   -0.5326822394
C        5.2211506379    0.1509194703    1.7997057211
C        1.0719711900   -0.6146682061    0.1226275039
C        3.6612515128   -0.7072596182    0.1432063242
C        4.5313106356   -0.2423421836   -0.8736559213
C        4.0626626259   -0.5657515591    1.4884966054
C        2.3452140741   -1.3322541737   -0.2156694625
C        4.0592066419   -1.8165833218   -2.6328567529
C        3.4896708034   -2.8690367921   -1.6722069421
N        2.2593780260   -2.3676791448   -1.0221606983
N        4.3262709141   -0.5284217572   -2.2246201842
O        4.2973448641   -2.0874843294   -3.7994199337
F        3.3865040621   -1.1567982484    2.4964919718
H       -2.2742359817    1.3360114012    0.6565547001
H       -1.5839607463    0.6481049285   -1.6269076124
H       -0.8365128063    0.7767787129    2.5988127358
H        6.9096389041    1.2591370944    1.0505408878
H        0.5238726184   -0.5773491524   -1.9715475660
H        1.2383327753   -0.4437278951    2.2957679749
H        6.3271472070    0.8617121866   -1.3114496483
H        5.5031918873    0.2697143374    2.8390667232
H        3.2544782821   -3.7687561212   -2.2475855400
H        4.2452997660   -3.1369902523   -0.9282430576
H        4.8088422113    0.0044067867   -2.9366856395
30   

C       -1.3582651829    0.8061134461    0.4889522016
C       -1.1130416890    0.1681742977   -0.7270744805
C       -0.3953829086    0.7619045609    1.4977209966
C        6.0116309917    0.6151563827    0.9010917061
C        0.0869787650   -0.5221218164   -0.9290982367
C        0.8067824548    0.0733022826    1.2972204058
C        5.6853278827    0.4838862691   -0.4452287141
C        5.1986969097    0.0181841722    1.8602514356
C        1.0590044750   -0.6080423121    0.0866607032
C        3.6489236996   -0.7110058632    0.1371393470
C        4.5360644078   -0.2040325338   -0.8410711057
C        4.0347400609   -0.6617196521    1.4921733765
C        2.3335954269   -1.3137094197   -0.2598973565
C        4.0788832656   -1.6964621182   -2.6696946640
C        3.5100353149   -2.7916079698   -1.7552683882
N        2.2687958350   -2.3284557664   -1.0962605012
N        4.3453786916   -0.4267320112   -2.2054297394
O        4.3231329818   -1.9182668689   -3.8453702526
F        3.3257703534   -1.3032867369    2.4492233380
H       -2.2887023883    1.3401907701    0.6459928987
H       -1.8517308423    0.2089182876   -1.5195657438
H       -0.5766449327    1.2685140051    2.4389180912
H        6.9099261126    1.1473685053    1.1964295693
H        0.2499320419   -0.9957019431   -1.8917543305
H        1.5206095497    0.0984909729    2.1053115527
H        6.3515826082    0.8982358688   -1.1930975920
H        5.4705169450    0.0688502919    2.9078682765
H        3.2886322428   -3.6700781026   -2.3677332489
H        4.2616289937   -3.0826258594   -1.0158917550
H        4.8346395875    0.1363911015   -2.8890254031
30   

C       -1.3836895254    0.7697863947    0.5317966425
C       -1.2454932369   -0.0564418002   -0.5830944822
C       -0.3050234145    0.9429254996    1.3986921047
C        6.0134945853    0.5398611957    0.9952443763
C       -0.0368606442   -0.7195874896   -0.8227335962
C        0.9053275353    0.2819197884    1.1601762220
C        5.7267371954    0.4464562294   -0.3634653004
C        5.1503683574   -0.0470413115    1.9160709099
C        1.0542852004   -0.5929591113    0.0599327243
C        3.6412978568   -0.7031096428    0.1279889030
C        4.5717430828   -0.1993477950   -0.8108609617
C        3.9791769750   -0.6827705489    1.4966307850
C        2.3300522376   -1.2797451729   -0.3125517803
C        4.1329483607   -1.6317054045   -2.6897791835
C        3.5281955478   -2.7392141753   -1.8149832379
N        2.2782586009   -2.2775971869   -1.1711247265
N        4.4159190319   -0.3817336405   -2.1851772458
O        4.3999345883   -1.8282528094   -3.8650276313
F        3.1996968355   -1.2942475448    2.4193035043
H       -2.3206164251    1.2830860910    0.7170024889
H       -2.0748845206   -0.1831913665   -1.2696910641
H       -0.4017005545    1.5997352826    2.2557799271
H        6.9172611518    1.0383868734    1.3300822236
H        0.0303905392   -1.3401556342   -1.7101262698
H        1.7139504618    0.4878466816    1.8457454194
H        6.4280984075    0.8571433618   -1.0806472568
H        5.3855252197   -0.0197305426    2.9734256085
H        3.3098963701   -3.5997857020   -2.4533941344
H        4.2591536871   -3.0581071414   -1.0665084323
H        4.9336738833    0.1893206559   -2.8406276441
30   

C       -1.3959365822    0.7308929064    0.5957832567
C       -1.3379369046   -0.2479747809   -0.3956906908
C       -0.2357912448    1.0821011659    1.2850098642
C        6.0054972164    0.4600394055    1.0702668622
C       -0.1262386659   -0.8839998042   -0.6885068288
C        0.9769443484    0.4480012119    0.9929688402
C        5.7684874825    0.3927554936   -0.2994979894
C        5.0854195069   -0.1021572767    1.9499715053
C        1.0523946150   -0.5748946119    0.0188859514
C        3.6319643123   -0.6998571357    0.0949870440
C        4.6115398973   -0.2088963162   -0.8008862242
C        3.9111389603   -0.6928471361    1.4777068022
C        2.3251406760   -1.2411842249   -0.3933222778
C        4.1878534278   -1.5711525316   -2.7363979485
C        3.5281727421   -2.6843161805   -1.9122790439
N        2.2747767647   -2.2100990904   -1.2848714067
N        4.4983251374   -0.3492012532   -2.1841569998
O        4.4826536042   -1.7406894579   -3.9092063103
F        3.0601351531   -1.2593828550    2.3651799533
H       -2.3351180826    1.2235343645    0.8212594092
H       -2.2331121434   -0.5152919906   -0.9457388972
H       -0.2715529860    1.8564969383    2.0428682432
H        6.9114564260    0.9241376267    1.4461833615
H       -0.1286518028   -1.6295121366   -1.4765722167
H        1.8500126265    0.7906407195    1.5311092467
H        6.5092234913    0.7914666296   -0.9830853345
H        5.2753327421   -0.0871795354    3.0166625802
H        3.3037916281   -3.5189370079   -2.5822431224
H        4.2300726033   -3.0461128352   -1.1555826736
H        5.0534781894    0.2243289216   -2.8059791503
30   

C       -1.3921572815    0.6951805767    0.6659549540
C       -1.3800389417   -0.4103954196   -0.1848338045
C       -0.1886337673    1.1980908649    1.1601919329
C        5.9903133700    0.3835186813    1.1511299737
C       -0.1686602618   -1.0188420997   -0.5330618207
C        1.0232109061    0.5912570937    0.8125735407
C        5.8114165678    0.3296506774   -0.2278509331
C        5.0107866165   -0.1430160192    1.9869929784
C        1.0564389666   -0.5485410046   -0.0233314457
C        3.6261316705   -0.6973844874    0.0657491627
C        4.6576979841   -0.2288467360   -0.7841513281
C        3.8387604203   -0.6908230692    1.4612232823
C        2.3243245580   -1.1945799769   -0.4736934371
C        4.2491097332   -1.5203835891   -2.7753724007
C        3.5208104640   -2.6291591024   -2.0080187795
N        2.2680658868   -2.1301726635   -1.3995557303
N        4.5946625425   -0.3326043680   -2.1739695650
O        4.5751476918   -1.6660652179   -3.9430943540
F        2.9232360826   -1.2123933688    2.3109448190
H       -2.3312224504    1.1664044322    0.9336923026
H       -2.3112601833   -0.7984567869   -0.5817555666
H       -0.1914828616    2.0672502757    1.8081344701
H        6.8944342123    0.8142447290    1.5688758199
H       -0.2046645989   -1.8703427556   -1.2042857813
H        1.9330446061    1.0388727974    1.1922645889
H        6.5936630626    0.7086275596   -0.8754936677
H        5.1504505066   -0.1317699358    3.0614842293
H        3.2853991122   -3.4329425120   -2.7110931611
H        4.1854342158   -3.0419857626   -1.2438554098
H        5.1931400694    0.2355591836   -2.7594824337
