29

C      2.63869   -6.47905    1.79110
C      2.38607   -5.34162    1.01490
C      1.63430   -6.99672    2.61350
C      1.13231   -4.72895    1.05985
C      0.38180   -6.37627    2.66397
C      0.12161   -5.24299    1.88574
C     -0.73266   -2.73644    3.47977
C     -0.19560   -1.41905    5.30208
C      0.03669   -2.90978    5.60471
C     -2.01026   -4.68573    0.60029
C     -1.25263   -4.60180    1.92611
N     -0.42993   -1.48390    3.84776
N     -1.15603   -3.15140    2.30298
O     -0.56599   -3.60790    4.45638
H      3.61203   -6.95965    1.75092
H      3.16241   -4.93990    0.36984
H      1.82425   -7.88075    3.21554
H      0.94655   -3.85294    0.44121
H     -0.39486   -6.77911    3.31037
H     -1.07033   -1.01302    5.81800
H      0.68043   -0.80962    5.52734
H      1.09189   -3.18535    5.61961
H     -0.46825   -3.27047    6.49829
H     -1.45871   -4.19036   -0.20554
H     -2.12179   -5.73519    0.32142
H     -3.00717   -4.24139    0.68197
H     -1.84722   -5.07824    2.70869
H     -0.61863   -0.67030    3.27433
H     -1.28493   -2.46039    1.57172
