31

C      0.06874   -3.79439    0.42680
C      3.63716   -3.32421   -0.59610
C     -0.39274   -2.49720    0.38019
C      4.11523   -4.61757   -0.55161
C      1.77775   -1.69913   -0.31519
C      1.92688   -5.42115    0.14258
C      2.28827   -3.02293   -0.27604
C      1.42072   -4.10074    0.10160
C      0.46068   -1.42011    0.00551
C      3.24888   -5.68247   -0.17734
C      0.70603    1.00091    0.79074
C     -0.21132    0.50304   -1.51466
C      4.99694   -7.30879   -0.42971
C     -0.08247   -0.00287   -0.06981
O      0.82728    2.17313    0.51699
O      1.22747    0.51193    1.94926
O      3.64523   -6.99030   -0.10883
H     -0.60031   -4.60139    0.71559
H      4.30512   -2.51525   -0.88232
H     -1.42949   -2.28478    0.63266
H      5.15175   -4.81081   -0.80305
H      2.45066   -0.89238   -0.60150
H      1.28240   -6.24853    0.42645
H      0.76783    0.54072   -2.00029
H     -0.85250   -0.17181   -2.08879
H     -0.63665    1.50850   -1.53257
H      5.08216   -8.38939   -0.30900
H      5.69923   -6.81295    0.25133
H      5.23782   -7.04111   -1.46568
H     -1.08524   -0.00643    0.37885
H      1.12852   -0.45847    1.95833
