30

C      0.41543    1.07278   -0.43191
C      0.48436   -0.27828   -0.28287
C      1.48351    1.96413   -0.86532
C     -1.88840    0.07608    0.06216
C     -0.74883   -0.93218    0.29438
C     -2.24695   -3.00182    0.37784
C      6.14257    1.87205   -2.44102
C     -1.03929   -2.32636   -0.28074
C      4.89565    1.11182   -1.97363
C      3.75762    2.06296   -1.64014
O      1.42173    3.17823   -0.92414
O      1.53811   -1.07868   -0.53487
O      2.62444    1.26396   -1.20919
S     -1.15291    1.76865    0.07347
H     -2.34677   -0.09537   -0.91776
H     -2.66176    0.02267    0.82925
H     -0.56924   -1.03024    1.37724
H     -2.10625   -3.09178    1.46127
H     -2.39606   -4.00921   -0.02351
H     -3.17113   -2.43946    0.20750
H      5.93503    2.46274   -3.34000
H      6.50448    2.55763   -1.66695
H      6.95462    1.17825   -2.67808
H     -1.20355   -2.23664   -1.36181
H     -0.14852   -2.94897   -0.15260
H      5.13319    0.51107   -1.08765
H      4.56505    0.41678   -2.75435
H      4.02411    2.75251   -0.83414
H      3.45450    2.65679   -2.50690
H      2.26983   -0.50684   -0.85480
