14   

C       -0.3069588799    0.8557401565   -2.0518859936
C       -0.4546071975   -0.1050800792   -0.9694483587
C       -1.0814799786    0.5385454719   -3.1378235904
C       -1.3506898695   -1.1149877132   -1.2687436784
C       -1.7304182729   -2.2922533309   -0.4666153984
C       -1.3090414988   -2.3868521359    0.9920998768
O       -2.3294401386   -3.2374974564   -0.9720184232
S       -2.0208443753   -0.9290948575   -2.8902729081
H        0.3461678649    1.7208305870   -2.0055870173
H        0.0923016025   -0.0324684875   -0.0352389571
H       -1.1182969321    1.1178865215   -4.0528567046
H       -1.7461248424   -1.5583291203    1.5554334738
H       -0.2196906316   -2.3432854351    1.0679255797
H       -1.6571937737   -3.3307563779    1.4210762156
14   

C       -0.2953925154    0.8549387654   -2.0627412488
C       -0.3905704092   -0.1379795954   -1.0036018180
C       -1.1716546587    0.6071483580   -3.0878791196
C       -1.3587959404   -1.0927946966   -1.2525436759
C       -1.6833273090   -2.3078098064   -0.4759223624
C       -1.3105556277   -2.3883469429    0.9969609319
O       -2.1351530253   -3.3085596990   -1.0232198911
S       -2.1498788029   -0.8288417941   -2.8065400622
H        0.3978037224    1.6893922877   -2.0465649831
H        0.2479614437   -0.1303165888   -0.1265813412
H       -1.2588753974    1.2180266924   -3.9786607401
H       -1.8747315486   -1.6390914349    1.5584310912
H       -0.2405583618   -2.2072863127    1.1238476249
H       -1.5503455079   -3.3806963220    1.3892941980
14   

C       -0.2482864895    0.8038046123   -2.0882048679
C       -0.3015569375   -0.2145016959   -1.0503401806
C       -1.2350471826    0.6418601890   -3.0266965225
C       -1.3545341552   -1.0924862340   -1.2209316686
C       -1.6491226625   -2.3311886240   -0.4580830067
C       -1.3314846130   -2.3989875353    1.0289911013
O       -1.9728501424   -3.3657276587   -1.0291846102
S       -2.2717630067   -0.7388692418   -2.6839318411
H        0.4968210335    1.5916861023   -2.1220790749
H        0.4290391380   -0.2821291150   -0.2513984986
H       -1.3684716966    1.2831366422   -3.8899635127
H       -2.1010109793   -1.8607971830    1.5885513593
H       -0.3574844587   -1.9499759701    1.2346458293
H       -1.3148407938   -3.4410979169    1.3603241841
14   

C       -0.2112573526    0.7906272229   -2.1137141883
C       -0.2200324475   -0.2596222585   -1.1067707268
C       -1.2811725926    0.7008315173   -2.9674108457
C       -1.3235462433   -1.0812301735   -1.2088630145
C       -1.5776250923   -2.3475233285   -0.4612913751
C       -1.3674814893   -2.3837867022    1.0454443183
O       -1.7322831720   -3.4089119416   -1.0488497906
S       -2.3446278458   -0.6469056591   -2.5768458250
H        0.5631167068    1.5467316189   -2.1893885953
H        0.5755348189   -0.3943751525   -0.3814817277
H       -1.4589114436    1.3751421961   -3.7968569550
H       -2.2766144781   -2.0387307473    1.5447252752
H       -0.5364457662   -1.7358814713    1.3329108486
H       -1.1487650081   -3.4052486386    1.3688328250
14   

C       -0.6243016472    0.8807065240   -2.0645718045
C       -1.1450669118   -0.0649323251   -1.0889284289
C       -0.4806045080    0.3179118121   -3.3074740688
C       -1.4151212492   -1.2964541590   -1.6403818861
C       -1.8168223781   -2.5434715178   -0.9060892980
C       -3.1158641184   -2.5529928298   -0.1158211455
O       -1.0245455112   -3.4563687255   -0.7369375789
S       -0.9802299817   -1.3701137151   -3.3448294674
H       -0.3652211590    1.9077341075   -1.8297321910
H       -1.2757248356    0.1697612199   -0.0375399472
H       -0.0977560864    0.8427603428   -4.1747942943
H       -3.9403150366   -2.8267297728   -0.7792690298
H       -3.3103272779   -1.5627600958    0.3033001133
H       -3.0550527110   -3.2800464457    0.6986499513
14   

C       -0.4990248506    0.8469600349   -2.0644334093
C       -0.9173150948   -0.0855629361   -1.0284651517
C       -0.5635170941    0.2932257178   -3.3181654344
C       -1.2879360180   -1.3051362919   -1.5376537288
C       -1.7648391147   -2.5112642233   -0.7692471844
C       -3.2435244362   -2.6536540932   -0.4500439603
O       -0.9797236160   -3.3504274001   -0.3625347335
S       -1.1317914095   -1.3731195057   -3.2895993253
H       -0.1693072309    1.8610480459   -1.8644463434
H       -0.9263026270    0.1537626199    0.0300736735
H       -0.2926836715    0.8131217414   -4.2295958854
H       -3.8068225391   -2.7888488795   -1.3768759719
H       -3.5991527533   -1.7532757200    0.0573199972
H       -3.4066224691   -3.5188884418    0.1986082626
14   

C       -0.4057594176    0.8143947321   -2.0200735065
C       -0.7440421611   -0.0978614223   -0.9381253719
C       -0.6810890904    0.2812088784   -3.2535115657
C       -1.2369854488   -1.2979385216   -1.3913625990
C       -1.7865034570   -2.4130662445   -0.5485148739
C       -3.2548159016   -2.7902883435   -0.6717448201
O       -1.0475526772   -3.1403789562    0.0954182174
S       -1.3501243388   -1.3438315583   -3.1492149014
H        0.0130937026    1.8031121899   -1.8647704599
H       -0.6273383502    0.1436742231    0.1137059308
H       -0.5061515646    0.7934013673   -4.1923670844
H       -3.5511890392   -2.8226234945   -1.7228031550
H       -3.8645695617   -2.0473532919   -0.1511207231
H       -3.4289426188   -3.7721208938   -0.2227705994
14   

C       -0.3280583369    0.7842663272   -2.0246837312
C       -0.6382617849   -0.1261216702   -0.9330614708
C       -0.7546979939    0.3051342987   -3.2367599545
C       -1.2578311543   -1.2794122889   -1.3598061234
C       -1.8276026026   -2.3393563969   -0.4745410517
C       -3.2404314220   -2.8512400086   -0.7149669414
O       -1.1176405569   -2.9397640343    0.3196301895
S       -1.5360050697   -1.2664700691   -3.1010107918
H        0.1779176887    1.7345028441   -1.8899288036
H       -0.4167087730    0.0820236070    0.1092222334
H       -0.6267170353    0.8268813562   -4.1779287886
H       -3.3818683423   -3.1031765284   -1.7684194444
H       -3.9594834864   -2.0789218493   -0.4295936151
H       -3.4220688862   -3.7448231203   -0.1111566643
14   

C       -0.2633867887    0.7727451713   -2.0501963011
C       -0.5570472603   -0.1356684096   -0.9524829017
C       -0.8209789549    0.3560398628   -3.2318362145
C       -1.3000820959   -1.2283284570   -1.3470606837
C       -1.8651163358   -2.2571847922   -0.4338124941
C       -3.2170745209   -2.8895383684   -0.7311993023
O       -1.1824790589   -2.7286443510    0.4671185346
S       -1.7117587145   -1.1527264606   -3.0604595755
H        0.3251209144    1.6775704283   -1.9403976094
H       -0.2370979376    0.0284671413    0.0721630177
H       -0.7267684289    0.8882410170   -4.1711324541
H       -3.2349836181   -3.2888557114   -1.7479632189
H       -4.0027927795   -2.1372305981   -0.6231064825
H       -3.4096564869   -3.7056167105   -0.0290133735
14   

C       -0.2129116832    0.7502053207   -2.0814715430
C       -0.5107853899   -0.1501515131   -0.9782809578
C       -0.8770387350    0.4018229375   -3.2298069585
C       -1.3729220135   -1.1669913658   -1.3360935539
C       -1.9360842633   -2.1781790101   -0.4091852739
C       -3.2279875263   -2.9067894968   -0.7501110532
O       -1.3019172712   -2.5312447509    0.5789154469
S       -1.8798794840   -1.0299460828   -3.0200897472
H        0.4555495974    1.6007395888   -1.9987760612
H       -0.1078732832   -0.0363150541    0.0238509084
H       -0.7977672543    0.9409509949   -4.1665227119
H       -3.1539782042   -3.3660897542   -1.7387955249
H       -4.0608205185   -2.1987993898   -0.7393044827
H       -3.4197921329   -3.6904690613   -0.0117326060
14   

C       -0.1758570118    0.7328329212   -2.1017603922
C       -0.4698753351   -0.1626618289   -0.9935717124
C       -0.9422573280    0.4614011766   -3.2064341647
C       -1.4424016995   -1.0931795458   -1.3023089839
C       -1.9927736353   -2.1044403436   -0.3714735702
C       -3.2316517677   -2.9073234249   -0.7405165003
O       -1.4132207524   -2.3549658378    0.6803912698
S       -2.0436951627   -0.8876452644   -2.9478863093
H        0.5645534823    1.5243891689   -2.0537080856
H        0.0163569176   -0.1087963390   -0.0238054587
H       -0.8822387842    1.0104647341   -4.1387983334
H       -3.0736793982   -3.4252904959   -1.6897919731
H       -4.0908725831   -2.2374800724   -0.8296586572
H       -3.4397040818   -3.6492341661    0.0356472768
14   

C       -0.1398118782    0.6900834559   -2.1089614231
C       -0.4399870213   -0.2006549647   -0.9985703237
C       -0.9905746761    0.5043811806   -3.1687856029
C       -1.5113528857   -1.0332458531   -1.2567245076
C       -2.0595452104   -2.0468075813   -0.3281696986
C       -3.2471182004   -2.9084562275   -0.7313874436
O       -1.5579644205   -2.2042578899    0.7805844471
S       -2.1843173331   -0.7532364004   -2.8630496890
H        0.6659921455    1.4164118603   -2.0948102289
H        0.1140068905   -0.2147960336   -0.0643710174
H       -0.9406019127    1.0650057833   -4.0948401691
H       -3.0058204591   -3.4743223879   -1.6348550061
H       -4.1173826747   -2.2746008726   -0.9200867917
H       -3.4877977953   -3.6106804904    0.0717985552
14   

C       -0.1160818645    0.6566886042   -2.1055179914
C       -0.4080271488   -0.2373615760   -0.9956183574
C       -1.0569299894    0.5744436128   -3.1001863416
C       -1.5708550505   -0.9584949081   -1.1821617379
C       -2.1055814874   -1.9836147615   -0.2573902270
C       -3.2531825371   -2.8890021048   -0.6804850437
O       -1.6743232407   -2.0663163370    0.8881755346
S       -2.3304377854   -0.5834214224   -2.7294671538
H        0.7494126066    1.3100794096   -2.1383486523
H        0.2184757550   -0.3353126142   -0.1137615699
H       -1.0278562737    1.1545580163   -4.0150619527
H       -2.9289391175   -3.5341056082   -1.5012209626
H       -4.1058187114   -2.2873990590   -1.0051714386
H       -3.5636419341   -3.5148804930    0.1609639935
14   

C       -0.1002361498    0.6154129148   -2.1185076701
C       -0.3999016519   -0.2788660712   -1.0108762343
C       -1.1023620655    0.6363329164   -3.0546488006
C       -1.6328272759   -0.8873203105   -1.1334554190
C       -2.1730206403   -1.9205873837   -0.2173056566
C       -3.2554255810   -2.8821801404   -0.6863202737
O       -1.8476585908   -1.9289745745    0.9647551831
S       -2.4457226947   -0.4182576755   -2.6270960008
H        0.8145345028    1.1940206244   -2.1926413467
H        0.2726837629   -0.4592960536   -0.1774267865
H       -1.0789493946    1.2336792010   -3.9585343708
H       -2.8447748237   -3.5522425811   -1.4461624999
H       -4.0980247214   -2.3282129328   -1.1070864189
H       -3.6135996468   -3.4798517191    0.1566763541
14   

C       -0.0782535095    0.5540881490   -2.1169850683
C       -0.3906852830   -0.3332301495   -1.0072601032
C       -1.1257866895    0.6773737791   -2.9935075993
C       -1.6771755629   -0.8264753962   -1.0631013315
C       -2.2433077816   -1.8538892055   -0.1488016513
C       -3.2345841638   -2.8841477995   -0.6703590578
O       -2.0537401969   -1.7811944517    1.0589874196
S       -2.5282644897   -0.2669403412   -2.5030662901
H        0.8771226123    1.0543224405   -2.2358454680
H        0.3126485643   -0.5915284120   -0.2212516262
H       -1.1025442565    1.2875316768   -3.8888052674
H       -2.7280435268   -3.5566763841   -1.3675874519
H       -4.0637939689   -2.3895225075   -1.1815788007
H       -3.6338509900   -3.4718438121    0.1611062654
14   

C       -0.0690974403    0.4849316101   -2.1258887998
C       -0.3906636079   -0.4092954432   -1.0242410757
C       -1.1538533647    0.7303889211   -2.9282500344
C       -1.7159660733   -0.7826698754   -1.0095420520
C       -2.3234443515   -1.7980050239   -0.0974803990
C       -3.2018585701   -2.9021332580   -0.6677154978
O       -2.2862138867   -1.6511708156    1.1159005964
S       -2.6022879820   -0.1022312081   -2.3736327497
H        0.9181518145    0.9028144259   -2.2927206582
H        0.3355481273   -0.7564493543   -0.2956352147
H       -1.1320274562    1.3665709818   -3.8052870190
H       -2.5799378311   -3.6119663371   -1.2193502718
H       -3.9536770582   -2.4835096418   -1.3405992441
H       -3.7099304520   -3.4318601194    0.1430395561
14   

C       -0.0594550233    0.4185594711   -2.1753059401
C       -0.3938758657   -0.4943642497   -1.0927200614
C       -1.1647184429    0.7998520694   -2.8925758713
C       -1.7418161475   -0.7495755374   -1.0120213468
C       -2.4115914334   -1.7288531260   -0.0910236035
C       -3.1323726473   -2.9335858209   -0.6762504871
O       -2.5471705920   -1.4862142054    1.0974299167
S       -2.6471873859    0.0754929751   -2.2787057126
H        0.9498181846    0.7542967191   -2.3892389219
H        0.3405867230   -0.9331153913   -0.4246101526
H       -1.1388290952    1.4738813527   -3.7407552157
H       -2.3964476689   -3.6755034622   -0.9968322425
H       -3.7354239136   -2.6336252115   -1.5364621194
H       -3.7858305934   -3.3823155135    0.0770969870
14   

C       -0.6046180478    1.0090056154   -2.0886168806
C       -1.1464987589    0.3438660674   -0.9131341308
C       -0.4995889652    0.1614321923   -3.1625054231
C       -1.4240385114   -0.9810423145   -1.1402192483
C       -2.0007126556   -1.9753138371   -0.1647514271
C       -1.0662933426   -2.7463323800    0.7523466458
O       -3.2050976050   -2.1360297022   -0.0667222928
S       -1.0515279948   -1.4686219488   -2.7899957155
H       -0.3223483840    2.0563285385   -2.1114393406
H       -1.3205806461    0.8424549841    0.0350047748
H       -0.1248348453    0.4538397841   -4.1363659962
H       -0.4198743819   -2.0486142486    1.2907725153
H       -0.4468443250   -3.4232598140    0.1585003507
H       -1.6446633728   -3.3294135746    1.4744809040
14   

C       -0.4848003056    0.9733715451   -2.0564250288
C       -0.9474172067    0.2149028808   -0.9040266189
C       -0.5278279820    0.2374227925   -3.2134550803
C       -1.2838391138   -1.0800864315   -1.2256654796
C       -1.9347339465   -2.0913443136   -0.3261043314
C       -1.2118927930   -2.5357917749    0.9356786453
O       -3.1124617685   -2.3836764894   -0.4572348947
S       -1.1175288773   -1.4004684283   -2.9488598270
H       -0.1589497886    2.0069919097   -2.0063431996
H       -1.0439721299    0.6364488139    0.0912352133
H       -0.2391946058    0.6140391180   -4.1876903225
H       -0.6250386638   -1.7101630326    1.3455281056
H       -0.5407008435   -3.3641989971    0.6947326459
H       -1.9348659938   -2.8672693701    1.6860804136
14   

C       -0.4215186427    0.9287851482   -2.0360159550
C       -0.8243100039    0.1375057862   -0.8833355230
C       -0.6050258323    0.2564437184   -3.2174819936
C       -1.2573627321   -1.1247078004   -1.2333179558
C       -1.8960043232   -2.1382527483   -0.3434972628
C       -1.2737513557   -2.4452834372    1.0108517709
O       -3.0198234132   -2.5627668352   -0.5726440856
S       -1.2576385879   -1.3612691113   -2.9787866692
H       -0.0366464581    1.9408526506   -1.9676899619
H       -0.8140404594    0.5188478558    0.1323428315
H       -0.3822395622    0.6675135222   -4.1950579413
H       -0.8238735374   -1.5468754503    1.4392343124
H       -0.4992068600   -3.2066909660    0.8875339277
H       -2.0372940074   -2.8212073755    1.6974996417
14   

C       -0.3882713178    0.8957804212   -2.0364936326
C       -0.7374800805    0.0719919908   -0.8891600050
C       -0.6950827412    0.2869644093   -3.2264092235
C       -1.2639674749   -1.1519888433   -1.2544037807
C       -1.8611434866   -2.1918134354   -0.3796199062
C       -1.3041449215   -2.4168575129    1.0189466319
O       -2.9082092892   -2.7510237967   -0.6832084283
S       -1.4052319085   -1.3083598565   -3.0043511087
H        0.0509847467    1.8846547278   -1.9572999271
H       -0.6183691699    0.4062397210    0.1358975031
H       -0.5281100463    0.7307994812   -4.2007798106
H       -1.0987857453   -1.4626872514    1.5088119848
H       -0.3777579321   -2.9931975744    0.9513696705
H       -2.0256818356   -2.9738220070    1.6232873265
14   

C       -0.3427081853    0.8785514175   -2.0288190840
C       -0.6420081041    0.0209014014   -0.8923394750
C       -0.8060454719    0.3575472926   -3.2095465844
C       -1.3014107853   -1.1379791521   -1.2575414775
C       -1.8598170092   -2.1968289221   -0.3906537969
C       -1.3202080829   -2.3848107139    1.0193825000
O       -2.8383137072   -2.8506162734   -0.7374369261
S       -1.6121449953   -1.1921125383   -2.9926667299
H        0.1782370603    1.8268059127   -1.9480374930
H       -0.3871108486    0.2820676974    0.1293236250
H       -0.6972318785    0.8386210661   -4.1744300391
H       -1.4102736569   -1.4528592885    1.5825800550
H       -0.2689098221   -2.6806083185    0.9724268289
H       -1.8859401412   -3.1661123384    1.5348429631
14   

C       -0.3110699889    0.8587491088   -2.0501721154
C       -0.5657069667   -0.0318939899   -0.9283241354
C       -0.8755652168    0.4036452107   -3.2137528998
C       -1.3066916913   -1.1437342377   -1.2849035480
C       -1.8115499548   -2.2397516592   -0.4379145525
C       -1.3195085089   -2.3815980328    0.9946128221
O       -2.6770608332   -3.0098379120   -0.8449375615
S       -1.7305525984   -1.1194469524   -2.9974686344
H        0.2561345436    1.7803071331   -1.9720063587
H       -0.2150834923    0.1696324605    0.0784424675
H       -0.8110755710    0.9164788525   -4.1661818894
H       -1.5460938913   -1.4725025625    1.5572301185
H       -0.2396417376   -2.5510767252    0.9972283121
H       -1.8133258729   -3.2298872815    1.4770353745
14   

C       -0.3066932835    0.8648436211   -2.0602557898
C       -0.5085707788   -0.0624512893   -0.9575424371
C       -0.9773854692    0.4801459378   -3.1923652734
C       -1.3294720944   -1.1237153871   -1.2930204723
C       -1.7724029326   -2.2610624425   -0.4683687259
C       -1.3152691557   -2.3771656146    0.9779165523
O       -2.5113566758   -3.1274156332   -0.9287933249
S       -1.8767161884   -1.0158043698   -2.9672968122
H        0.3050270627    1.7583417685   -1.9927378591
H       -0.0581443983    0.0739017878    0.0200625878
H       -0.9631986530    1.0275651487   -4.1274645011
H       -1.6493077878   -1.5027421851    1.5422318063
H       -0.2247683085   -2.4400415979    1.0167053629
H       -1.7394412910   -3.2768254751    1.4327464090
