27

C      0.93646    0.56812   -0.05487
C      0.30168   -0.40437   -0.77020
C      1.56247    1.69304   -0.72006
C      0.27416   -1.40542    1.43047
C     -0.40774   -1.45205    0.04866
C     -1.91559   -1.13880    0.10335
C      5.04602    2.92464    0.34279
C      4.20659    3.39860   -0.84854
C      2.76731    3.73804   -0.47636
O      1.59560    1.80640   -1.95654
O      0.19918   -0.46105   -2.10376
O      2.08639    2.60013    0.12087
S      0.84471    0.33352    1.71552
H     -0.40238   -1.69081    2.23850
H      1.15207   -2.05686    1.45123
H     -0.26184   -2.43701   -0.40781
H     -2.08989   -0.18015    0.60174
H     -2.44564   -1.91932    0.65864
H     -2.33526   -1.08820   -0.90504
H      5.09442    3.69224    1.12388
H      4.62065    2.02153    0.79037
H      6.07071    2.69781    0.03163
H      4.19811    2.64207   -1.63950
H      4.64754    4.30392   -1.28553
H      2.72914    4.50325    0.30261
H      2.19924    4.07196   -1.34689
H      0.67225    0.34075   -2.45175
