27

C      0.48864   -0.61813    0.19462
C      1.00464    1.84340    0.09133
C     -1.37903   -0.68282    1.78286
C      0.82490    0.64676    1.01538
C     -0.95216   -1.08211    0.36856
C     -1.83219   -0.44825   -0.72840
C      4.52257    2.97271   -0.95440
C      3.17702    3.56268   -1.39001
C      2.23828    3.85884   -0.22575
O      1.32230   -1.16324   -0.49736
O      0.35654    2.03558   -0.91875
O      1.96270    2.66327    0.56187
S     -0.57569    0.94102    2.17072
H     -2.45894   -0.54447    1.86895
H     -1.05875   -1.42416    2.51960
H      1.75125    0.47114    1.56587
H     -0.96137   -2.17013    0.25363
H     -1.84452    0.64034   -0.64616
H     -2.85571   -0.82538   -0.63564
H     -1.45290   -0.70871   -1.71979
H      5.05160    3.64938   -0.27320
H      4.38658    2.01746   -0.43874
H      5.16790    2.79648   -1.82063
H      2.67212    2.89151   -2.09140
H      3.33510    4.51031   -1.92092
H      2.69646    4.54319    0.49212
H      1.28968    4.27257   -0.57416
