49

C     -2.07318    4.74481    2.79984
C      1.59431   -1.23067   -0.27353
C     -2.39101    3.40516    2.58103
C      0.48863   -0.67984    0.37285
C     -1.57918    5.16959    4.03914
C      3.68408   -3.07278   -1.45324
C      1.67175   -0.98525    2.46608
C      5.18135   -1.64192   -0.26806
C     -1.70589    2.87210    4.83898
C      4.76682   -3.44346   -2.25185
C      2.74792   -1.65962    0.40398
C      3.88308   -2.14387   -0.42235
C      2.78243   -1.55631    1.82015
C     -2.21393    2.45636    3.60232
C      0.54451   -0.54849    1.76820
C     -1.40371    4.22003    5.04387
C      6.20848   -2.07421   -1.11007
C      3.87103   -2.03749    2.67800
C     -1.74199    0.43719    2.16284
C     -2.97893    0.08331    4.43468
C     -3.98756    0.57103    3.41491
C     -2.54995    1.01902    3.32355
C      7.62481   -1.59084   -0.91278
N      4.00980   -1.62847    3.96077
N      6.00863   -2.96522   -2.10305
N      4.80186   -2.95654    2.34767
N      5.06490   -2.31302    4.42310
N      5.53590   -3.11136    3.46064
N     -0.50494    0.01150    2.54315
O     -2.18800    0.40603    1.01475
Cl    -0.78001    4.72845    6.61085
H     -2.20779    5.47205    2.00326
H      1.57801   -1.29999   -1.35833
H     -2.76738    3.07600    1.61667
H     -0.38272   -0.35214   -0.17719
H     -1.33142    6.21090    4.21904
H      2.70703   -3.51969   -1.61638
H      1.71884   -0.90856    3.54975
H      5.39616   -0.93183    0.52281
H     -1.53826    2.15665    5.63739
H      4.62790   -4.16920   -3.05416
H     -3.04934    0.47423    5.44558
H     -2.65627   -0.95212    4.37394
H     -4.33276   -0.12019    2.65256
H     -4.71607    1.30854    3.73852
H      8.18603   -2.32186   -0.31855
H      8.13024   -1.48340   -1.87682
H      7.65483   -0.63743   -0.37756
H     -0.29806    0.09787    3.53119
