41

C     -1.43402   -3.91064    0.24223
C     -2.66431   -4.56043    0.07025
C     -2.21974   -2.10671   -1.15122
C     -1.19891   -2.67799   -0.36725
C     -3.67659   -3.99410   -0.69540
C     -3.45456   -2.73985   -1.31391
C      2.03023   -1.31823    1.11322
C     -5.64307   -0.57209   -3.27896
C     -5.86071   -0.29595   -4.57604
C      1.19481   -2.52232    0.67594
C     -0.05689   -0.49148    0.34467
C      0.10796   -1.92409   -0.23072
C     -7.24165    0.08151   -5.05767
C     -4.80988   -0.31965   -5.65967
C     -5.23366   -5.12769   -2.08954
C     -4.34134   -0.93449   -2.63457
N      1.29063   -0.19699    0.81852
O      3.13160   -1.33317    1.64626
O     -4.88943   -4.63832   -0.78423
O     -4.49681   -2.23529   -2.03992
H     -0.66712   -4.38769    0.84312
H     -2.85897   -5.52137    0.53835
H     -2.03660   -1.15212   -1.63279
H     -6.48644   -0.53446   -2.59044
H      1.81758   -3.28065    0.19882
H      0.77247   -2.95823    1.58877
H     -0.37720    0.22940   -0.41318
H     -0.79229   -0.48446    1.16114
H      0.54549   -1.80911   -1.23072
H     -7.23299    1.07243   -5.52937
H     -7.59223   -0.62602   -5.81969
H     -7.96961    0.09668   -4.24251
H     -5.14137   -0.95380   -6.49079
H     -4.66303    0.68613   -6.07310
H     -3.83985   -0.68900   -5.32318
H     -6.17938   -5.66036   -1.97065
H     -4.46599   -5.82356   -2.45149
H     -5.35822   -4.30744   -2.80158
H     -4.09574   -0.21225   -1.84290
H     -3.51122   -0.95047   -3.34765
H      1.56494    0.69870    1.20389
