39

C      0.45214   -3.07383   -1.29290
C      0.88603   -4.33126   -1.74484
C      2.37356   -2.95401    0.16266
C      1.18842   -2.38139   -0.34056
C      2.05593   -4.90398   -1.25200
C      2.81503   -4.19965   -0.27943
C     -0.36839    0.71680   -0.88450
C      7.15707   -4.45249    2.03358
C      7.11937   -5.05326    0.64437
C      1.77929    0.10007   -0.21414
C      5.88152   -5.07856    1.50914
C      0.76511   -1.01632    0.16453
C      0.45632   -1.01757    1.66552
C      1.83017   -6.85385   -2.60387
C      4.72223   -4.18499    1.17012
N      0.87120    1.19953   -0.50393
O     -1.26780    1.32039   -1.42616
O     -0.44913   -0.60173   -0.52349
O      2.55739   -6.11686   -1.62785
O      3.94851   -4.82431    0.14991
H     -0.45995   -2.64294   -1.68877
H      0.29281   -4.85360   -2.48674
H      2.95403   -2.41540    0.90329
H      7.69945   -4.98105    2.81155
H      7.19708   -3.36955    2.11852
H      7.12283   -4.37570   -0.20484
H      7.63989   -5.99050    0.47388
H      2.44933    0.33258    0.61849
H      2.37706   -0.19077   -1.08635
H      5.59850   -6.04043    1.92877
H      0.18262   -0.01101    1.99663
H      1.32355   -1.35295    2.24108
H     -0.37584   -1.69634    1.86705
H      2.39326   -7.77480   -2.76063
H      1.76040   -6.30430   -3.55109
H      0.82091   -7.10012   -2.25059
H      5.08403   -3.21117    0.80959
H      4.09305   -4.01129    2.05442
H      1.18672    2.03693   -0.97650
