45

C     -0.44111   -9.83721    5.24206
C     -1.13107   -8.63895    5.45492
C      0.41463   -9.95073    4.14108
C     -0.96615   -7.56638    4.57569
C      0.57812   -8.87748    3.26258
C      1.31632   -6.23349    1.96630
C     -1.01833   -5.71779    2.16114
C      1.47419   -5.17377    1.07826
C     -0.85534   -4.65654    1.26639
C     -0.10939   -7.66735    3.46513
C      0.06347   -6.53039    2.52941
C      0.39349   -4.35656    0.70465
C      0.94391   -6.19732   -2.17310
C      0.50367   -0.23160   -0.83300
C      1.83229   -0.93415   -0.52775
C     -0.50118   -1.19863   -1.47204
C      1.61862   -2.19546    0.32269
C     -0.69769   -2.45304   -0.60749
C      0.61425   -3.21065   -0.29040
C      1.22298   -3.80189   -1.59269
N      0.46234   -4.92168   -2.13267
O      2.07928   -6.53941   -1.86433
H     -0.56845  -10.67228    5.92607
H     -1.79112   -8.53595    6.31270
H      0.94884  -10.88020    3.96040
H     -1.48573   -6.63108    4.76660
H      1.22392   -8.98683    2.39549
H      2.18255   -6.83181    2.23478
H     -2.00972   -5.93522    2.55024
H      2.45981   -5.00173    0.65784
H     -1.73203   -4.07480    1.00404
H      0.18551   -6.91553   -2.53816
H      0.66843    0.63338   -1.48577
H      0.07985    0.15609    0.10366
H      2.33882   -1.18999   -1.46661
H      2.50556   -0.25266    0.00505
H     -1.46957   -0.70248   -1.60516
H     -0.15996   -1.47103   -2.47851
H      2.57797   -2.69089    0.50501
H      1.23346   -1.90171    1.30721
H     -1.15166   -2.13718    0.33916
H     -1.42659   -3.12345   -1.08133
H      2.22693   -4.18305   -1.40531
H      1.31324   -3.02908   -2.36012
H     -0.51414   -4.78696   -2.35959
