33

C     -4.78960   -0.56350   -4.73866
C     -6.94142   -1.61719   -4.97210
C     -4.41302   -1.60430   -3.88334
C     -6.06728   -0.57489   -5.28534
C     -5.35268   -2.62182   -3.61831
C     -2.34827    1.25169   -0.98909
C     -2.89512   -0.07584   -0.48346
C     -5.39988   -5.15020   -3.12254
C     -3.94651   -4.73019   -3.03835
C     -3.15810    0.38526   -1.90882
C     -5.05009   -3.75463   -2.67278
C     -5.27081   -3.40435   -1.20699
C     -3.00917   -1.60678   -3.29860
N     -6.58517   -2.61268   -4.15638
N     -2.52834   -0.24394   -3.04875
Br    -6.63731    0.83274   -6.45684
H     -4.08550    0.23602   -4.94526
H     -7.94780   -1.64706   -5.38445
H     -2.79122    2.17310   -0.62310
H     -1.27734    1.31562   -1.16746
H     -2.18111   -0.88325   -0.34097
H     -3.71157   -0.06152    0.23342
H     -5.84512   -5.26233   -4.10561
H     -5.77961   -5.83888   -2.37288
H     -3.33391   -5.12855   -2.23332
H     -3.41437   -4.57582   -3.97325
H     -4.17107    0.71988   -2.11927
H     -5.02203   -4.25428   -0.56255
H     -6.32084   -3.14348   -1.03634
H     -4.65650   -2.55201   -0.89653
H     -2.98627   -2.22950   -2.39672
H     -2.33014   -2.07307   -4.02365
H     -1.51876   -0.25224   -2.93230
