29

C      1.53067    4.04956    3.70062
C      0.22190    4.52953    3.78604
C      1.93597    3.34551    2.56565
C     -0.67358    4.30452    2.73759
C      1.06233    3.11300    1.49289
C     -0.24754    3.60562    1.60827
C      0.73402    0.08985    0.59402
C      0.29852   -2.07888    1.26818
C      1.34658   -1.41391    2.17867
C      1.78700    3.27283   -0.96037
C      1.60364    2.38419    0.27332
N     -0.15085   -0.90952    0.49221
N      0.75401    1.21265   -0.09467
O      1.66972   -0.14849    1.49614
Cl    -1.44020    3.36559    0.32122
H      2.23183    4.22033    4.51184
H     -0.10835    5.07870    4.66275
H      2.95484    2.97058    2.50256
H     -1.69312    4.67255    2.79017
H      0.73011   -2.83806    0.60986
H     -0.52777   -2.51023    1.83461
H      0.95402   -1.14821    3.16090
H      2.27591   -1.97156    2.27392
H      0.84168    3.70407   -1.29684
H      2.23539    2.70406   -1.78009
H      2.45692    4.09609   -0.70342
H      2.57457    1.96656    0.54183
H     -0.86802   -0.95022   -0.22243
H     -0.03060    1.39777   -0.71174
