18   
Generated by ForceBalance from scan.xyz: Frame 1 of 24
C       -0.6010834917    1.3194362632    2.4205442775
C        1.3986896790   -1.8112252465    4.2250460021
C        0.5798716063    0.6809109481    0.3392845218
C        1.8067788156    1.8623357065    2.2252752974
C        0.6874374362    0.8642015358    1.8599656497
N       -1.6290872539    1.6758914726    2.8301985080
N        0.9211389648   -0.5261002855    3.6625990991
N        1.0875083824   -0.4652790995    2.4365625870
N        0.6935942942   -2.0602824545    5.3599516994
O        2.2975663685   -2.4841369646    3.7642292353
H        1.5422558542    0.3334347717   -0.0444229327
H       -0.1826219249   -0.0613712179    0.0907244438
H        0.3193343795    1.6268985673   -0.1410495946
H        2.7643424568    1.4726953576    1.8683112737
H        1.8570878688    1.9979039270    3.3074191109
H        1.6146327313    2.8259647745    1.7474649796
H        0.8489655880   -2.9273102399    5.8556517030
H       -0.0411387333   -1.4301967664    5.6528316688
18   
Generated by ForceBalance from scan.xyz: Frame 2 of 24
C       -0.5673579990    1.3359569627    2.4587015746
C        1.3640567853   -1.8207572324    4.2339683655
C        0.5679942602    0.6441606056    0.3683695449
C        1.8244022777    1.9116616599    2.1785330031
C        0.7151106151    0.8792108053    1.8802315519
N       -1.5894270624    1.7068895923    2.8699075162
N        0.8090219481   -0.5734405235    3.6473485830
N        1.1879970838   -0.4028700491    2.4800509508
N        0.6297819034   -2.1148863981    5.3386701690
O        2.3186587181   -2.4381928596    3.8097195392
H        1.5260346741    0.3053299166   -0.0329924132
H       -0.1867431977   -0.1197962799    0.1656992043
H        0.2723372970    1.5699077072   -0.1307124447
H        2.7803626396    1.5273265962    1.8125895706
H        1.9000524373    2.0914538479    3.2532124522
H        1.5997653129    2.8529418158    1.6710691143
H        0.8436383790   -2.9487785169    5.8681862974
H       -0.1413796952   -1.5194551148    5.6093735368
18   
Generated by ForceBalance from scan.xyz: Frame 3 of 24
C       -0.5225043056    1.3480865780    2.5065781334
C        1.3550432553   -1.8525120329    4.2229813545
C        0.5697086667    0.5866714513    0.4190728932
C        1.8409762548    1.9791294996    2.1277144794
C        0.7586702750    0.8992226760    1.9145833732
N       -1.5391310587    1.7258169360    2.9247827477
N        0.7484993607   -0.6363285214    3.6160106841
N        1.2946012722   -0.3343331078    2.5453346124
N        0.5973810519   -2.1852822694    5.3003874093
O        2.3497512748   -2.4248228958    3.8292485095
H        1.5211455972    0.2466698101    0.0032527081
H       -0.1773709809   -0.1983676501    0.2786085101
H        0.2410529455    1.4832539151   -0.1117293840
H        2.7940020709    1.6140749258    1.7364027355
H        1.9554389174    2.2044463668    3.1905755064
H        1.5606268158    2.8927987236    1.5980362377
H        0.8391671086   -3.0019006856    5.8446071387
H       -0.2166448310   -1.6337134780    5.5364143851
18   
Generated by ForceBalance from scan.xyz: Frame 4 of 24
C       -0.4757625404    1.3995831255    2.5533686835
C        1.3478452151   -1.8524938081    4.2159134072
C        0.5645356917    0.5271130827    0.4851086053
C        1.8548908105    2.0636010875    2.0565510052
C        0.7996058096    0.9446941836    1.9505068872
N       -1.4756444610    1.7995091830    2.9907847300
N        0.7107795660   -0.6670870668    3.5790995935
N        1.3816501478   -0.2387772409    2.6290503609
N        0.5277293516   -2.2583915381    5.2200691888
O        2.4030352922   -2.3556050096    3.8912209042
H        1.5040352092    0.1647834953    0.0606379532
H       -0.1817348549   -0.2688007330    0.4259887921
H        0.2130269378    1.3848021853   -0.0933276613
H        2.7977525335    1.7076452624    1.6342415861
H        2.0168354776    2.3431968990    3.1003145687
H        1.5195181927    2.9438526358    1.5029933497
H        0.7956495500   -3.0483602989    5.7907470379
H       -0.3224130255   -1.7473720985    5.4169116026
18   
Generated by ForceBalance from scan.xyz: Frame 5 of 24
C       -0.4390537965    1.4396293200    2.6058795204
C        1.3330930145   -1.8751573477    4.2082145116
C        0.5662641002    0.4560352452    0.5730666070
C        1.8616696526    2.1210068064    2.0090254018
C        0.8325683190    0.9771100796    2.0012347893
N       -1.4285023205    1.8504353995    3.0568252523
N        0.6814460995   -0.7182944826    3.5358123857
N        1.4456928682   -0.1592778372    2.7363851522
N        0.4753446758   -2.3209228125    5.1629232217
O        2.4215676952   -2.3367788022    3.9360240559
H        1.4961046029    0.0622249921    0.1545223193
H       -0.1823756248   -0.3393694282    0.5888905604
H        0.2058240927    1.2727437961   -0.0570108841
H        2.7961897998    1.7641408815    1.5693711165
H        2.0582276602    2.4571005496    3.0300608397
H        1.4864796141    2.9661731576    1.4272037466
H        0.7515575011   -3.0912061572    5.7561264477
H       -0.4040887702   -1.8454714652    5.3152723646
18   
Generated by ForceBalance from scan.xyz: Frame 6 of 24
C       -0.7162926272    1.1491199525    2.0957946022
C        0.5787000507   -2.7209233411    2.4886717257
C        0.8953351142    0.9085260310    0.2394026858
C        1.6260430680    1.8150304895    2.5140330467
C        0.6957433614    0.8462387389    1.7687319736
N       -1.8109905512    1.4292760408    2.3687375687
N        0.1395558179   -1.3410175141    2.1548235504
N        1.0827480013   -0.5380149703    2.1743573573
N       -0.5310325486   -3.4381030330    2.8051973766
O        1.7212504718   -3.1277729652    2.4514789118
H        1.9181014847    0.6071704877   -0.0035541379
H        0.1962322939    0.2361251699   -0.2623728094
H        0.7305489678    1.9292510907   -0.1141092888
H        2.6631034935    1.5755511683    2.2663522017
H        1.4936686212    1.7230046830    3.5948094563
H        1.4121213395    2.8454603590    2.2208271361
H       -0.4327593313   -4.4024902211    3.0912504229
H       -1.4404116447   -2.9959147994    2.7982547437
18   
Generated by ForceBalance from scan.xyz: Frame 7 of 24
C       -0.7106401384    1.1740918098    2.1292536436
C        0.6038162146   -2.7186284592    2.4592958933
C        0.8714076935    0.8552494802    0.2609405919
C        1.6354053680    1.8551449319    2.4868024344
C        0.6951063698    0.8605000379    1.7930314163
N       -1.8043818713    1.4465481346    2.4141490517
N        0.1900162580   -1.3580109328    2.0435513753
N        1.0629715509   -0.5128563452    2.2839740815
N       -0.5182904374   -3.4309846392    2.7425024065
O        1.7484555143   -3.1213100525    2.4879906220
H        1.8932296683    0.5503027407    0.0170928510
H        0.1703159614    0.1558520935   -0.1984324531
H        0.6960488023    1.8580011542   -0.1360663189
H        2.6690124321    1.6010200498    2.2383501869
H        1.5161525370    1.8067817843    3.5718552556
H        1.4245354986    2.8742975738    2.1545933848
H       -0.4281661967   -4.3774040404    3.0856113381
H       -1.4290909982   -2.9965763448    2.6770804710
18   
Generated by ForceBalance from scan.xyz: Frame 8 of 24
C       -0.9049863396    1.1315182501    1.7820319749
C        0.2894719954   -2.8599037742    1.9102029677
C        1.0353294717    0.8819764325    0.2651316314
C        1.3275092023    1.6547559898    2.6801918518
C        0.5262021945    0.7722447604    1.7135020082
N       -2.0244726235    1.4327617561    1.8694325045
N        0.0536784396   -1.4694761040    1.5035324964
N        0.6879208553   -0.6555075258    2.1935404787
N        0.0670159013   -3.1037943520    3.2309482295
O        0.5774349208   -3.6728422618    1.0538979063
H        2.0859336745    0.5788634606    0.2294712559
H        0.4548176724    0.2335192324   -0.3926006180
H        0.9540810216    1.9156619841   -0.0792870662
H        2.3798202443    1.3597151738    2.6450350094
H        0.9652820952    1.5370278394    3.7044127817
H        1.2424453013    2.7061553975    2.3964413499
H        0.3080087164   -4.0268532821    3.5698582527
H        0.1072045026   -2.3303150798    3.8826565607
18   
Generated by ForceBalance from scan.xyz: Frame 9 of 24
C       -0.8972655149    1.1251752859    1.8633823710
C        0.4439786140   -2.8732179787    1.9288335065
C        0.9728797699    0.8840536004    0.2540476540
C        1.3753637261    1.6533689428    2.6504338902
C        0.5292887675    0.7705204107    1.7214299740
N       -2.0170252246    1.4066263074    2.0009576011
N        0.2459124837   -1.5006769409    1.4452336219
N        0.6729028914   -0.6495359062    2.2407853642
N       -0.0585206102   -3.1045982988    3.1723449248
O        0.9481812960   -3.6861763263    1.1792182332
H        2.0214350523    0.5828863065    0.1737683439
H        0.3705084678    0.2398190529   -0.3867122274
H        0.8759551496    1.9197561736   -0.0802292499
H        2.4234006744    1.3501201205    2.5739641676
H        1.0546125334    1.5426708612    3.6888056375
H        1.2881102759    2.7035108619    2.3626724647
H        0.1346644391   -4.0103638198    3.5812262288
H       -0.1997820132   -2.3190175742    3.7950348669
18   
Generated by ForceBalance from scan.xyz: Frame 10 of 24
C       -0.8749583389    1.1322845778    1.9552080798
C        0.6501531329   -2.8619117258    2.0353676530
C        0.9144914645    0.8678044427    0.2579839636
C        1.4377699296    1.6675773452    2.6182491228
C        0.5421901504    0.7730766955    1.7443874291
N       -1.9904113786    1.4072761949    2.1349089530
N        0.4774888745   -1.5171889513    1.4731477140
N        0.6761946210   -0.6260138086    2.3135934359
N       -0.1720033640   -3.1278339952    3.0868727056
O        1.4149355928   -3.6327568818    1.4895960486
H        1.9523319340    0.5484403975    0.1287934425
H        0.2762603295    0.2320597834   -0.3557145045
H        0.8169768066    1.9038330366   -0.0754114849
H        2.4794005288    1.3577855933    2.4939298189
H        1.1680962291    1.5738964794    3.6723424489
H        1.3415024678    2.7129978730    2.3165400892
H       -0.0379956971   -4.0131983882    3.5592491799
H       -0.5580827009   -2.3564343993    3.6166883905
18   
Generated by ForceBalance from scan.xyz: Frame 11 of 24
C       -0.9071240348    1.2103455303    1.9734784290
C        0.6731400368   -2.8577302379    2.0210693857
C        0.8440594928    0.8746478602    0.2528984297
C        1.4391760217    1.6133638442    2.6164864183
C        0.4868040460    0.7765152241    1.7415250366
N       -2.0045889512    1.5485829113    2.1552150884
N        0.5741913410   -1.5082408276    1.4409928504
N        0.5404741881   -0.6219222015    2.3091348021
N       -0.2170863921   -3.1062569036    3.0207164999
O        1.4581682900   -3.6440069467    1.5285319291
H        1.8583008959    0.4976479305    0.0987267114
H        0.1632038755    0.2880469482   -0.3645613068
H        0.7992190923    1.9208656725   -0.0595774455
H        2.4632160207    1.2590714870    2.4674449757
H        1.1817002109    1.5145033516    3.6730161282
H        1.3845369195    2.6665805304    2.3322108617
H       -0.1121612136   -3.9844783278    3.5131939584
H       -0.6090115474   -2.3200329326    3.5250343202
18   
Generated by ForceBalance from scan.xyz: Frame 12 of 24
C       -0.9273376278    1.2862865785    1.9773804162
C        0.7318306768   -2.8511848635    2.0169657080
C        0.7912479722    0.8842209208    0.2437881979
C        1.4399409576    1.5479750880    2.6179886089
C        0.4399077982    0.7767835116    1.7323651256
N       -2.0003294256    1.6941904821    2.1609311896
N        0.6917228386   -1.4931955317    1.4381249068
N        0.4186820483   -0.6243060063    2.2814192520
N       -0.2219288379   -3.1023743796    2.9544332230
O        1.5467732689   -3.6381122219    1.5762140418
H        1.7942500209    0.4874065511    0.0726422911
H        0.0913839571    0.3188569508   -0.3736697765
H        0.7634008051    1.9346819390   -0.0563113650
H        2.4439801933    1.1473416003    2.4523714165
H        1.1847933510    1.4430192120    3.6745329241
H        1.4326338964    2.6077191778    2.3533231560
H       -0.1497070785   -3.9799017247    3.4532952760
H       -0.6557442690   -2.3154855453    3.4227380295
18   
Generated by ForceBalance from scan.xyz: Frame 13 of 24
C       -0.5098860271    0.5067859971    1.9276346666
C        3.2438982120   -2.0426763176    1.9609787020
C        1.1635164932    1.0899698651    0.2072109915
C        1.4063661269    1.9013457777    2.6152036668
C        0.9279251995    0.7628886465    1.6875165758
N       -1.6441264114    0.3196774132    2.0993472584
N        2.5107935204   -0.8798999419    1.4153827685
N        1.6231797971   -0.4723889153    2.1817109332
N        2.5057124422   -2.8791890532    2.7390682912
O        4.4049468724   -2.1899613106    1.6316252609
H        2.2217725161    1.2918635167    0.0338206228
H        0.8638891203    0.2566906550   -0.4318849933
H        0.5779057455    1.9720694053   -0.0632466159
H        2.4714242809    2.0756235338    2.4401761674
H        1.2536826448    1.6394853280    3.6644393438
H        0.8525230333    2.8164352757    2.3937543003
H        3.0071500421   -3.6118767428    3.2242272053
H        1.6460150229   -2.5272157189    3.1441656516
18   
Generated by ForceBalance from scan.xyz: Frame 14 of 24
C       -0.4450780215    0.7173219982    2.4865264316
C        3.0581998743   -2.2590493686    2.4634808155
C        0.6834511723    0.4126830280    0.3128588459
C        1.7366632494    1.8252607086    2.1627385301
C        0.8738839773    0.5887371096    1.8269820420
N       -1.4896858234    0.8357475297    2.9819339801
N        2.3301591843   -1.1795541336    1.7615615511
N        1.5405180316   -0.5734680671    2.5036755182
N        2.3832304038   -2.8439165010    3.4892585154
O        4.1558216811   -2.5705648880    2.0433114147
H        1.6547146875    0.3312826353   -0.1765635891
H        0.1066428606   -0.4897845244    0.0966789657
H        0.1468141154    1.2765463668   -0.0867722643
H        2.7040862730    1.7230652526    1.6643684741
H        1.8946376654    1.9101711959    3.2404096497
H        1.2395499146    2.7305237390    1.8069701131
H        2.9045133371   -3.4908130839    4.0666506205
H        1.6056022146   -2.3411169582    3.9014599817
18   
Generated by ForceBalance from scan.xyz: Frame 15 of 24
C       -0.4332940964    0.7170702740    2.5628026446
C        3.1929503046   -2.1673402533    2.4932817199
C        0.6271113376    0.3751479583    0.3614161221
C        1.7498606168    1.7991922166    2.1621080105
C        0.8656752832    0.5685610617    1.8691769067
N       -1.4633803607    0.8551192921    3.0827128399
N        2.4803850308   -1.0490078293    1.8338978933
N        1.5299063182   -0.6192285318    2.5070451216
N        2.4721233184   -2.8605572232    3.4128551146
O        4.3313232861   -2.4014308276    2.1351810187
H        1.5860008953    0.2663927978   -0.1471521802
H        0.0233420081   -0.5169153392    0.1769542011
H        0.0986422917    1.2435435976   -0.0389775585
H        2.6977661798    1.6819405954    1.6315018410
H        1.9464201485    1.8921714096    3.2330716051
H        1.2478266239    2.7062368484    1.8178917019
H        2.9694115832   -3.5449673065    3.9669560179
H        1.6259842447   -2.4428084367    3.7825820356
18   
Generated by ForceBalance from scan.xyz: Frame 16 of 24
C       -0.4248276454    0.7838496597    2.5749893105
C        3.2244158675   -2.0988112339    2.5544306941
C        0.5956223057    0.3601912890    0.3682620109
C        1.7690371023    1.8158348703    2.1103170024
C        0.8615469035    0.5938603156    1.8678799415
N       -1.4419256889    0.9620449131    3.1079880003
N        2.5708493101   -0.9161593087    1.9440260618
N        1.4889519925   -0.6286796700    2.4804841404
N        2.4260378756   -2.8818902531    3.3241768395
O        4.3960032996   -2.2928757118    2.2918937763
H        1.5499014299    0.2216877449   -0.1436426677
H       -0.0250522129   -0.5267151151    0.2176499074
H        0.0771649500    1.2245369409   -0.0531133103
H        2.7169461102    1.6590498166    1.5916043241
H        1.9614804783    1.9508864076    3.1776104635
H        1.2853890309    2.7166951798    1.7257209274
H        2.8697650829   -3.6205329778    3.8530486260
H        1.5270177844   -2.5212959005    3.6219871826
18   
Generated by ForceBalance from scan.xyz: Frame 17 of 24
C       -0.3572890231    0.8822361367    2.6169113527
C        3.2488956220   -1.9890531030    2.0764050859
C        0.5294211305    0.7198000600    0.3168979005
C        1.8148253858    1.9556897314    2.1445587654
C        0.8835342925    0.7742067529    1.8182395670
N       -1.3356052399    0.9999523276    3.2328977599
N        2.6591495200   -0.6629759066    1.7783945921
N        1.4944687950   -0.5475169254    2.1923802687
N        2.6677393116   -2.6758118115    3.0943462036
O        4.2171128292   -2.3345945448    1.4267441458
H        1.4559234842    0.6416450410   -0.2565261762
H       -0.1043054805   -0.1427693616    0.0962994188
H       -0.0037253479    1.6288192152    0.0292821416
H        2.7289829767    1.8678123233    1.5556120276
H        2.0734673545    1.9629982479    3.2064434450
H        1.3129240946    2.8950828209    1.9012354866
H        2.9631617383   -3.6330781399    3.2323185069
H        1.7486389429   -2.3890835406    3.4110839168
18   
Generated by ForceBalance from scan.xyz: Frame 18 of 24
C       -0.3146885759    0.9046274941    2.6280674146
C        3.2561280111   -1.9756633215    2.1951838749
C        0.5110376380    0.7118862603    0.3076504530
C        1.8533341623    1.9551412236    2.0872247976
C        0.9051920625    0.7800851792    1.7997544725
N       -1.2722401413    1.0315149892    3.2742677753
N        2.7076268006   -0.6230227838    1.9566799115
N        1.4810351712   -0.5640332222    2.1397715604
N        2.5878948051   -2.7208198446    3.1157930065
O        4.2708185426   -2.2891852737    1.6030881582
H        1.4215291435    0.6220165908   -0.2901281431
H       -0.1338043889   -0.1482164927    0.1123600995
H       -0.0213693632    1.6225737412    0.0240389924
H        2.7444418985    1.8722388625    1.4639868134
H        2.1582564962    1.9593744702    3.1365808677
H        1.3420103931    2.8953268085    1.8671129630
H        2.8630371847   -3.6904219874    3.2032493908
H        1.6359162884   -2.4606643239    3.3468837663
18   
Generated by ForceBalance from scan.xyz: Frame 19 of 24
C       -0.2646064973    0.8937358620    2.6567876337
C        3.2989165330   -1.9248435701    2.3279574799
C        0.4644884720    0.7189423487    0.3054668200
C        1.8718135047    1.9642798722    2.0324903695
C        0.9224820372    0.7854116102    1.7794239790
N       -1.1968072300    1.0049118274    3.3420395689
N        2.7422969906   -0.5698336213    2.1289882402
N        1.5017178161   -0.5661236354    2.0789460245
N        2.5373413462   -2.7575506182    3.0880588558
O        4.3950735144   -2.1651193821    1.8601315097
H        1.3469064286    0.6326425549   -0.3341173306
H       -0.1860210352   -0.1422070846    0.1376178077
H       -0.0797518000    1.6298221538    0.0460832468
H        2.7371868183    1.8948739535    1.3717022393
H        2.2264737669    1.9667144727    3.0655477297
H        1.3422942701    2.9002984688    1.8385077658
H        2.8301221478   -3.7250210085    3.1343104761
H        1.5522685021   -2.5439618161    3.1944250997
18   
Generated by ForceBalance from scan.xyz: Frame 20 of 24
C       -0.2067536344    0.8696927050    2.6813119820
C        3.3171132790   -1.8840392238    2.4460038138
C        0.4044519920    0.7473741188    0.2969447525
C        1.8892688102    1.9712781322    1.9769556775
C        0.9368757045    0.7925569021    1.7446977808
N       -1.1032324959    0.9442346674    3.4175538042
N        2.7395547584   -0.5347383010    2.2753666631
N        1.5305987199   -0.5654926871    1.9955281657
N        2.4886606765   -2.7962386005    3.0217952590
O        4.4776150721   -2.0535367336    2.1257703943
H        1.2505095989    0.6634084241   -0.3908747601
H       -0.2581641166   -0.1086312432    0.1537668398
H       -0.1452574990    1.6646402224    0.0743837174
H        2.7386012767    1.9014067865    1.2942737592
H        2.2726979123    1.9764125779    2.9988004228
H        1.3542989731    2.9062444127    1.7928021133
H        2.8121886409   -3.7545417084    3.0494388939
H        1.4909867204   -2.6201682731    3.0077465516
18   
Generated by ForceBalance from scan.xyz: Frame 21 of 24
C       -0.1552531657    0.8193098898    2.6846513640
C        3.3004594279   -1.8711791802    2.5147736881
C        0.3464846469    0.7905275506    0.2754226741
C        1.8960952253    1.9736090775    1.9295428418
C        0.9450233581    0.7944344644    1.6948861170
N       -1.0176737404    0.8390336237    3.4641461139
N        2.6978655910   -0.5322457133    2.3890226112
N        1.5664316705   -0.5676252440    1.8799454153
N        2.4613483275   -2.8246176327    3.0034491845
O        4.4803208123   -2.0004381821    2.2527223590
H        1.1587824864    0.7330892661   -0.4549426905
H       -0.3146359016   -0.0674047088    0.1376537652
H       -0.2189462217    1.7091444526    0.1037942479
H        2.7331317296    1.9121538845    1.2295271594
H        2.2981214275    1.9694245204    2.9432627304
H        1.3566796081    2.9092095343    1.7624531720
H        2.8066341292   -3.7760318721    3.0081045133
H        1.4623094758   -2.6760460464    2.9269895005
18   
Generated by ForceBalance from scan.xyz: Frame 22 of 24
C       -0.4979758086    1.4859587452    2.6441415787
C        1.7695565795   -1.7932506225    4.2277632625
C        0.3506087138    0.5843895766    0.5197147331
C        1.9078978832    1.7885402593    2.1519231418
C        0.6825545666    0.8790073262    1.9920623474
N       -1.4306857048    1.9519950335    3.1588657283
N        1.6226367133   -0.4660169204    3.6151398016
N        0.8255074309   -0.4712456707    2.6639621044
N        0.5944248363   -2.3493805386    4.6310871126
O        2.8876308339   -2.2375404879    4.3996289823
H        1.2100509375    0.0974379325    0.0495271413
H       -0.5130998884   -0.0794827823    0.4451011730
H        0.1354011540    1.5127551889   -0.0140921687
H        2.7812902551    1.2952458097    1.7163843348
H        2.1160267322    1.9979222312    3.2010736743
H        1.7311192895    2.7297636450    1.6256267697
H        0.6343225384   -3.2985667576    4.9809296151
H       -0.2671125949   -2.0343569884    4.2024383224
18   
Generated by ForceBalance from scan.xyz: Frame 23 of 24
C       -0.4435761802    1.5216023457    2.6831686153
C        1.7125885852   -1.7055869967    4.3527778891
C        0.3049614983    0.5889507066    0.5332781270
C        1.9501127138    1.7630103954    2.0914889535
C        0.6941505280    0.8837567162    1.9894245270
N       -1.3533712835    2.0078633874    3.2197183210
N        1.4840528983   -0.3898327841    3.7428851297
N        0.8866006563   -0.4665681853    2.6579758478
N        0.5802636312   -2.4412585143    4.5225332827
O        2.8351932033   -1.9909208014    4.7208811257
H        1.1375913764    0.0833227552    0.0358115243
H       -0.5728722932   -0.0597015692    0.4917652974
H        0.0858337530    1.5175722448    0.0014296087
H        2.7862304135    1.2487939965    1.6086757805
H        2.2095941213    1.9563363381    3.1323547861
H        1.7755801113    2.7124817614    1.5796973071
H        0.6932851014   -3.3886952529    4.8609762596
H       -0.2281974263   -2.2318890839    3.9504389644
18   
Generated by ForceBalance from scan.xyz: Frame 24 of 24
C       -0.4028342979    1.5377264377    2.6964212236
C        1.6756178616   -1.6506529788    4.3944353905
C        0.2814769776    0.5977475228    0.5231206486
C        1.9762871365    1.7523610258    2.0346472790
C        0.7053431772    0.8866621096    1.9699987939
N       -1.3001545032    2.0351803243    3.2434268741
N        1.3295674203   -0.3571948930    3.8013727722
N        0.9749214247   -0.4581071742    2.6160387346
N        0.6322709880   -2.5216847080    4.4582865117
O        2.7935199907   -1.8107937026    4.8437651111
H        1.0997689372    0.0884575448    0.0068068884
H       -0.6013115246   -0.0457304497    0.4981133523
H        0.0534127768    1.5285972401   -0.0010176127
H        2.7904487056    1.2323285430    1.5215125179
H        2.2652849575    1.9302017624    3.0714067881
H        1.7988063619    2.7091316106    1.5377849700
H        0.8338686233   -3.4549534522    4.7949508189
H       -0.1595501729   -2.3944992598    3.8413835329
