19   

C        1.7384419948   -1.2550412753   -0.1122797171
C        0.7594317790   -0.5075774607    0.5303299447
C        2.7566132628   -1.8501373746    0.6347322456
C        0.8073010477   -0.3576060616    1.9153937858
C        2.8280617124   -1.7222434619    2.0404848157
C        1.8262642399   -0.9506732063    2.6864757229
C        3.9374114945   -2.3782579180    2.7466363214
C        1.8205881070   -0.7129793357    4.1780480304
N        4.0768571792   -2.6267518483    4.0910981916
N        5.0301618460   -2.8515689983    2.1031537344
N        5.2770298404   -3.2535562397    4.2090870289
N        5.8283601340   -3.3841371242    3.0607114989
H        1.7153431797   -1.3773119951   -1.1884326468
H       -0.0339060162   -0.0418626000   -0.0418556631
H        3.5107555825   -2.4302255999    0.1154791156
H        0.0396936059    0.2333955812    2.3998319398
H        1.6340957446   -1.6524089066    4.7071424171
H        2.7825628528   -0.3020116263    4.4992559676
H        1.0397013730   -0.0015165061    4.4605779318
19   

C        1.7129375071   -1.2940504360   -0.1207867003
C        0.7450747683   -0.5273952961    0.5192876200
C        2.7303750388   -1.8896768948    0.6275689479
C        0.8041279106   -0.3562383135    1.9025891934
C        2.8048605819   -1.7452875433    2.0284876693
C        1.8220583411   -0.9504426122    2.6730367226
C        3.9194818294   -2.3869559898    2.7407815494
C        1.8515888478   -0.6869226315    4.1595308155
N        3.9559086115   -2.8265542507    4.0413762748
N        5.1183903895   -2.6198858990    2.1598426355
N        5.2106011053   -3.3260489215    4.1994006541
N        5.8819065038   -3.2075949829    3.1139400623
H        1.6822554075   -1.4285951896   -1.1952684299
H       -0.0467379857   -0.0606989455   -0.0541979199
H        3.4837829598   -2.4827233014    0.1216209963
H        0.0492485961    0.2523802174    2.3852102973
H        1.5998733376   -1.6006484214    4.7063002017
H        2.8469646194   -0.3497438447    4.4649110349
H        1.1321412928    0.0891075219    4.4351947428
19   

C        1.7018344044   -1.3117163882   -0.1259327491
C        0.7477904184   -0.5265566315    0.5158737997
C        2.7149296710   -1.9180839641    0.6206142872
C        0.8167249599   -0.3454997893    1.8986290408
C        2.7904109276   -1.7678567995    2.0176848014
C        1.8298562457   -0.9513841609    2.6651502867
C        3.9059646115   -2.4037067755    2.7384499902
C        1.8880639779   -0.6855884850    4.1499699629
N        3.8595510224   -3.0319564784    3.9574609682
N        5.1751592333   -2.4030973753    2.2762030273
N        5.1448365936   -3.4126226122    4.1879985676
N        5.9038012668   -3.0508677796    3.2191042247
H        1.6642329698   -1.4500067358   -1.1997019943
H       -0.0398453347   -0.0514253169   -0.0564300092
H        3.4660189257   -2.5214531298    0.1234471905
H        0.0758343811    0.2788182447    2.3828577475
H        1.6063229850   -1.5875489035    4.7015675553
H        2.9012673475   -0.3930998331    4.4430190111
H        1.2053195080    0.1210849328    4.4309542211
19   

C        2.0351236567   -0.7401681260   -0.1290701561
C        0.8618365193   -0.3414554659    0.5086925888
C        3.0419896467   -1.3722509949    0.6053525537
C        0.7042672396   -0.5687559355    1.8782660065
C        2.8906584990   -1.6312339081    1.9777833104
C        1.7084956498   -1.2058518280    2.6301188222
C        4.0016554027   -2.2597225452    2.7199436545
C        1.5218274198   -1.3995209718    4.1151247270
N        3.9284516306   -3.3778794056    3.5095859092
N        5.2484913278   -1.7466455279    2.7605333720
N        5.1890849901   -3.5175139080    4.0017988208
N        5.9503453197   -2.5783840060    3.5703877634
H        2.1711256436   -0.5573960633   -1.1881220373
H        0.0778405503    0.1508060758   -0.0540453426
H        3.9642012000   -1.6737417076    0.1220344313
H       -0.2069292360   -0.2420388742    2.3641817889
H        1.4039639054   -2.4637368558    4.3403837146
H        2.3936058991   -1.0199537757    4.6574388972
H        0.6355657349   -0.8675136031    4.4718894587
19   

C        2.0221876081   -0.7555439575   -0.1439809286
C        0.8571549994   -0.3442240382    0.5031949263
C        3.0361781174   -1.3821493462    0.5861168029
C        0.7126172967   -0.5554260695    1.8775284983
C        2.8974648847   -1.6165616502    1.9627401206
C        1.7241320840   -1.1859711032    2.6243539574
C        4.0014419009   -2.2501989891    2.7188404210
C        1.5569965881   -1.3824692033    4.1109952148
N        3.9850475849   -3.5049568296    3.2674382543
N        5.1577401764   -1.6256035124    3.0155042546
N        5.1913641402   -3.6052152215    3.8890185626
N        5.8677260733   -2.5234304443    3.7438178025
H        2.1449955240   -0.5878195932   -1.2071170574
H        0.0681204548    0.1430900744   -0.0568004305
H        3.9509610425   -1.6973027674    0.0979202341
H       -0.1932803112   -0.2234066115    2.3696999455
H        1.5105353113   -2.4509611322    4.3426970087
H        2.4068702189   -0.9457203513    4.6450094763
H        0.6400935449   -0.9066698543    4.4696799926
19   

C        2.0190236100   -0.7821086304   -0.1503747172
C        0.8616004524   -0.3513085542    0.4987480186
C        3.0362864566   -1.3995794221    0.5832681761
C        0.7250747412   -0.5389364823    1.8776323907
C        2.9114550334   -1.5936233301    1.9668733952
C        1.7406401997   -1.1585090924    2.6278390218
C        4.0006464738   -2.2497473894    2.7296371082
C        1.5774294793   -1.3534898940    4.1148718722
N        4.1205631862   -3.5935134725    2.9593414917
N        5.0230584174   -1.5822189202    3.2959847654
N        5.2605922095   -3.6960030733    3.6954743389
N        5.7815365554   -2.5381362530    3.8890092034
H        2.1316802767   -0.6397120459   -1.2183143699
H        0.0699054267    0.1279790904   -0.0644092344
H        3.9412335405   -1.7389559441    0.0931157076
H       -0.1783066389   -0.1998976620    2.3696316111
H        1.6283282337   -2.4191859653    4.3592032621
H        2.3792069552   -0.8344590580    4.6494399334
H        0.6167328561   -0.9613988063    4.4599610720
19   

C        2.0163712311   -0.8108403200   -0.1449796433
C        0.8673358787   -0.3530581320    0.4994143529
C        3.0318689591   -1.4191450234    0.5983519058
C        0.7356727937   -0.5102954201    1.8821654305
C        2.9214957066   -1.5676318704    1.9894390053
C        1.7504629420   -1.1195608555    2.6421232130
C        3.9981609506   -2.2489430616    2.7439291312
C        1.5785551608   -1.2985963567    4.1302988988
N        4.3251694183   -3.5743982556    2.6467153436
N        4.8598830434   -1.6116876866    3.5592653039
N        5.3993442067   -3.7055194767    3.4719407106
N        5.7085473820   -2.5752188035    3.9973242493
H        2.1227909001   -0.6998200935   -1.2172763733
H        0.0763302484    0.1186887873   -0.0710280290
H        3.9260882354   -1.7881770837    0.1095596947
H       -0.1651281501   -0.1578919534    2.3694874805
H        1.6973146405   -2.3535357385    4.3968844226
H        2.3342944246   -0.7155602062    4.6655918429
H        0.5879853114   -0.9674685638    4.4542088488
19   

C        2.0175069088   -0.8413084724   -0.1367630364
C        0.8753797165   -0.3520774785    0.4944407607
C        3.0183260872   -1.4550979252    0.6210968536
C        0.7357359725   -0.4860024475    1.8781323406
C        2.9062723215   -1.5765858363    2.0161713816
C        1.7362815276   -1.0996010505    2.6540212287
C        3.9688229597   -2.2750414679    2.7657164490
C        1.5354310377   -1.2620492144    4.1409850675
N        4.4900018205   -3.5007435029    2.4457732380
N        4.6573535591   -1.7310448502    3.7899223344
N        5.4855354836   -3.6818647541    3.3555807890
N        5.5829153158   -2.6625651142    4.1300398196
H        2.1299118805   -0.7518102373   -1.2104690523
H        0.0948996401    0.1237923195   -0.0869727215
H        3.9051182845   -1.8501789738    0.1386842043
H       -0.1623681034   -0.1125175621    2.3546381572
H        1.7153042995   -2.3009543335    4.4348353067
H        2.2334897078   -0.6175771155    4.6837941290
H        0.5158020539   -0.9934344170    4.4308161100
19   

C        2.0025707863   -0.8660269990   -0.1323673938
C        0.8738740336   -0.3555365669    0.5031942669
C        3.0008120530   -1.4860358358    0.6228235193
C        0.7458312914   -0.4750245261    1.8884451448
C        2.9027742339   -1.5971760763    2.0219132325
C        1.7436361935   -1.0946941457    2.6641849726
C        3.9744814546   -2.2924191061    2.7533898635
C        1.5306940160   -1.2423375911    4.1517187062
N        4.6643416791   -3.3832874139    2.2900901056
N        4.5039126765   -1.8806023832    3.9255309946
N        5.5928173666   -3.6244049697    3.2548026111
N        5.5011105100   -2.7587270889    4.1976010519
H        2.1076823772   -0.7875000841   -1.2076823066
H        0.0947196220    0.1255821865   -0.0756794117
H        3.8774689069   -1.8923320536    0.1310531507
H       -0.1438376198   -0.0850984006    2.3676372607
H        1.7380365313   -2.2704812921    4.4645308449
H        2.1985291656   -0.5655263715    4.6931171104
H        0.4990738354   -1.0043585906    4.4254466153
19   

C        1.9927541418   -0.8803941687   -0.1334588043
C        0.8745741549   -0.3541665197    0.5043404710
C        2.9882868868   -1.5052168092    0.6201945871
C        0.7558317689   -0.4622172559    1.8902885079
C        2.8998683855   -1.6129742853    2.0227449082
C        1.7500598044   -1.0878931681    2.6673893615
C        3.9847233421   -2.2993167802    2.7395063757
C        1.5247642080   -1.2126899545    4.1559626537
N        4.8246100192   -3.2320816955    2.1830944589
N        4.3631397251   -2.0580804643    4.0145574999
N        5.6888221583   -3.5494276911    3.1842028499
N        5.4233102454   -2.8728043307    4.2407262908
H        2.0933519857   -0.8090224993   -1.2097183896
H        0.0969189821    0.1315022299   -0.0727597967
H        3.8569668018   -1.9160041989    0.1182234558
H       -0.1268624893   -0.0574012276    2.3700609524
H        1.6891398948   -2.2450850480    4.4797200005
H        2.2115206694   -0.5532808447    4.6951988355
H        0.5012943739   -0.9350586276    4.4227857559
19   

C        1.9751747795   -0.9092801899   -0.1273219383
C        0.8636845318   -0.3743234645    0.5117936339
C        2.9736800851   -1.5284505661    0.6260393749
C        0.7566938090   -0.4661701215    1.8989347572
C        2.8958956685   -1.6285105727    2.0320643820
C        1.7533187832   -1.0870386955    2.6784127058
C        3.9953571539   -2.2994207211    2.7397823891
C        1.5301764923   -1.1696104022    4.1709820698
N        4.9751441160   -3.0481038037    2.1329050198
N        4.2340750000   -2.2555283306    4.0704810047
N        5.7819486830   -3.4490449153    3.1512460829
N        5.3548317708   -2.9920370682    4.2697954568
H        2.0695464220   -0.8480692615   -1.2047828786
H        0.0833291774    0.1079014404   -0.0645637471
H        3.8359975539   -1.9406250387    0.1146513977
H       -0.1205827952   -0.0495327315    2.3785227066
H        1.6103581444   -2.2070788536    4.5096075862
H        2.2692227285   -0.5571747967    4.6963503438
H        0.5349257256   -0.8061578510    4.4413100004
19   

C        1.9490654312   -0.9392298677   -0.1206441905
C        0.8401433746   -0.4037150928    0.5211323352
C        2.9563331227   -1.5452180955    0.6313393218
C        0.7468496627   -0.4782176137    1.9099013764
C        2.8896277786   -1.6356760368    2.0395685775
C        1.7523652063   -1.0857150915    2.6891941157
C        4.0006950205   -2.2926900077    2.7421174567
C        1.5537867635   -1.1137793410    4.1875480608
N        5.1070252663   -2.8291813054    2.1268050517
N        4.1128394592   -2.4722962588    4.0784265762
N        5.8625817801   -3.3241667829    3.1428340638
N        5.2891787926   -3.1184640334    4.2699204934
H        2.0350260607   -0.8885765781   -1.1993624221
H        0.0529187663    0.0687631190   -0.0539591086
H        3.8146631934   -1.9578497248    0.1138339411
H       -0.1260297807   -0.0545750782    2.3913616618
H        1.5254244134   -2.1473226632    4.5457395748
H        2.3655820325   -0.5758852498    4.6865221489
H        0.6119172850   -0.6355366460    4.4700802332
19   

C        1.9397291981   -0.9759628275   -0.1335139134
C        0.8298279164   -0.4379793092    0.5058232814
C        2.9529089268   -1.5676192615    0.6223610975
C        0.7431597890   -0.4916918746    1.8963802830
C        2.8879203361   -1.6436113369    2.0305377487
C        1.7547527206   -1.0844898192    2.6784273693
C        4.0035603975   -2.2841938382    2.7410324163
C        1.5877686969   -1.0618280409    4.1804203744
N        5.2141962629   -2.6012215365    2.1730064074
N        4.0017280163   -2.6898776219    4.0314136977
N        5.9202590401   -3.1903403489    3.1745676411
N        5.2211477471   -3.2418018237    4.2474333532
H        2.0217087473   -0.9380212833   -1.2130574943
H        0.0384617406    0.0236016914   -0.0724206708
H        3.8127860852   -1.9844141646    0.1106087434
H       -0.1263947864   -0.0605667683    2.3772249636
H        1.4549220748   -2.0795937469    4.5596094202
H        2.4648991558   -0.6090688037    4.6527415126
H        0.7120151425   -0.4748980003    4.4707098834
19   

C        1.9090915705   -1.0029487768   -0.1125711565
C        0.8082647831   -0.4509583933    0.5335650850
C        2.9278874850   -1.5921168460    0.6387086608
C        0.7366043889   -0.4855532116    1.9265008399
C        2.8717613131   -1.6541421603    2.0457227526
C        1.7538471665   -1.0763453883    2.7011190506
C        3.9940132613   -2.2776808864    2.7619233294
C        1.6297405405   -1.0282858714    4.2059243025
N        5.2713319539   -2.3887779473    2.2706952098
N        3.9187161950   -2.8978611801    3.9607069138
N        5.9471557433   -3.0694218004    3.2349153816
N        5.1677585572   -3.3633120318    4.2099156251
H        1.9798370607   -0.9761961619   -1.1932317172
H        0.0136623584    0.0090272293   -0.0414898117
H        3.7852115928   -2.0187879050    0.1305042619
H       -0.1220249059   -0.0408617778    2.4145679185
H        1.4306186675   -2.0304229697    4.5974562878
H        2.5533201871   -0.6454588005    4.6510358253
H        0.8108684921   -0.3711962031    4.5116078624
19   

C        1.9022677181   -1.0184995962   -0.1187446376
C        0.8082542836   -0.4504652119    0.5285269360
C        2.9191409593   -1.6121578619    0.6327588338
C        0.7410878329   -0.4719040234    1.9230179043
C        2.8608232298   -1.6648955661    2.0374840594
C        1.7560233698   -1.0682433815    2.6948031379
C        3.9825596008   -2.2750299477    2.7698264874
C        1.6579628553   -1.0183134165    4.2007196765
N        5.3014610005   -2.1880988208    2.4044584518
N        3.8556228128   -3.0999417212    3.8315526837
N        5.9514449428   -2.9592034261    3.3175823578
N        5.1188726566   -3.4851778744    4.1402928175
H        1.9693743616   -0.9988418853   -1.1997749197
H        0.0161699563    0.0129697929   -0.0472186391
H        3.7768490608   -2.0482494068    0.1331559006
H       -0.1094295313   -0.0143701570    2.4133869879
H        1.4310305556   -2.0142340529    4.5929387838
H        2.6036226173   -0.6745668044    4.6314018519
H        0.8688370893   -0.3316782269    4.5194904723
19   

C        1.8963104937   -1.0356746972   -0.1187592558
C        0.8151779836   -0.4424167972    0.5304090691
C        2.9077494460   -1.6406419188    0.6320697895
C        0.7545543812   -0.4496901959    1.9262252953
C        2.8512657270   -1.6791376454    2.0352382057
C        1.7644236525   -1.0571433436    2.6948285437
C        3.9675159454   -2.2887608050    2.7842942818
C        1.6866158883   -1.0128059203    4.2014027203
N        5.2953449512   -2.0127010357    2.5919293936
N        3.8267416922   -3.2988994247    3.6668802680
N        5.9342250204   -2.8689926629    3.4346871174
N        5.0888838902   -3.6106658187    4.0540052242
H        1.9575472716   -1.0256274486   -1.2002573929
H        0.0280650206    0.0294998754   -0.0452563683
H        3.7592571860   -2.0941919536    0.1376632837
H       -0.0849052511    0.0256797297    2.4186398035
H        1.4991719505   -2.0166341582    4.5944254525
H        2.6291039967   -0.6429675244    4.6172955561
H        0.8807201179   -0.3523979265    4.5333579847
19   

C        1.8704606480   -1.0546424516   -0.1293045994
C        0.8092873039   -0.4414292876    0.5362563407
C        2.8870049523   -1.6701147394    0.6066597249
C        0.7716087191   -0.4409003307    1.9336251963
C        2.8533038840   -1.6931356259    2.0094025463
C        1.7874170653   -1.0575900166    2.6861989474
C        3.9635459484   -2.3212377786    2.7613959464
C        1.7382438468   -1.0266826251    4.1938129517
N        5.2507584453   -1.8596219497    2.8180609385
N        3.8569347220   -3.4949659592    3.4128803299
N        5.8984916191   -2.7939877611    3.5660207787
N        5.0965192825   -3.7367921905    3.9083288411
H        1.9111253103   -1.0527083507   -1.2118078840
H        0.0186042755    0.0379110340   -0.0282726929
H        3.7225637316   -2.1421927146    0.1029588525
H       -0.0537101347    0.0458543420    2.4386319746
H        1.6372745223   -2.0439779313    4.5843598125
H        2.6605353509   -0.5900797364    4.5898237444
H        0.8918992510   -0.4312886337    4.5473645185
19   

C        1.8482178615   -1.0720759509   -0.1390923774
C        0.8045628622   -0.4377976432    0.5354729378
C        2.8740286243   -1.6827018963    0.5883561844
C        0.7898098186   -0.4160937879    1.9334916597
C        2.8707783298   -1.6678791825    1.9909939390
C        1.8153108104   -1.0264682970    2.6776962954
C        3.9666648118   -2.3211818288    2.7465600194
C        1.7844162950   -0.9938501221    4.1856395718
N        5.1318352304   -1.7238200179    3.1445448547
N        3.9413501959   -3.6094885617    3.1355332295
N        5.7986987228   -2.7156630246    3.7953891637
N        5.1141467095   -3.8023299672    3.7898292951
H        1.8659194000   -1.0930275637   -1.2220100203
H        0.0067259757    0.0370230682   -0.0227801707
H        3.6909461699   -2.1796559552    0.0784171303
H       -0.0260809522    0.0795017576    2.4451712175
H        1.7628743428   -2.0144282222    4.5805587149
H        2.6792124743   -0.4914281346    4.5663058720
H        0.9023006094   -0.4598443820    4.5496036883
19   

C        1.8273474825   -1.0902459318   -0.1360750784
C        0.7957997828   -0.4386858856    0.5397304712
C        2.8592003753   -1.6925847977    0.5894060684
C        0.7965116945   -0.3966445029    1.9370608132
C        2.8822410815   -1.6431000673    1.9916497692
C        1.8291141332   -0.9971011061    2.6798095479
C        3.9681802901   -2.3195676378    2.7367815640
C        1.7974202039   -0.9600217002    4.1878764754
N        4.9622057678   -1.7022724485    3.4484600848
N        4.0708075598   -3.6576991052    2.8548130915
N        5.6715666706   -2.7342688843    3.9808247999
N        5.1592158019   -3.8609274056    3.6388322170
H        1.8292913748   -1.1342043387   -1.2184500227
H       -0.0074482504    0.0290428706   -0.0167474514
H        3.6613444270   -2.2111801034    0.0774407063
H       -0.0149401588    0.1049330269    2.4499798385
H        1.8703196815   -1.9756077132    4.5897198943
H        2.6416415685   -0.3740588172    4.5639837921
H        0.8695629746   -0.5090889080    4.5504949692
19   

C        1.8159268389   -1.1052482171   -0.1279673060
C        0.7917546949   -0.4378134773    0.5412708986
C        2.8469705351   -1.7016494721    0.6027870998
C        0.7987714919   -0.3770216749    1.9371162043
C        2.8835714748   -1.6292174262    2.0052937515
C        1.8315385312   -0.9706701225    2.6858215172
C        3.9687841710   -2.3149232206    2.7343806191
C        1.7861102002   -0.9205071052    4.1934921354
N        4.8011306528   -1.7586530345    3.6708811728
N        4.2317044670   -3.6320631096    2.6076443522
N        5.5817075243   -2.7962894005    4.0770244844
N        5.2546200726   -3.8758808522    3.4646251741
H        1.8125781057   -1.1677811472   -1.2094331662
H       -0.0118147772    0.0252288155   -0.0186545164
H        3.6408061621   -2.2352567734    0.0928353446
H       -0.0100888322    0.1333516154    2.4454581797
H        1.9299208095   -1.9228632190    4.6091803812
H        2.5799936680   -0.2675577205    4.5684927090
H        0.8239604602   -0.5372145874    4.5444003364
19   

C        1.8115599918   -1.1220722973   -0.1177542657
C        0.7970169969   -0.4336636481    0.5421012198
C        2.8336650526   -1.7232023688    0.6206990307
C        0.8056141140   -0.3571096529    1.9362439552
C        2.8746337864   -1.6393703907    2.0247449221
C        1.8294205531   -0.9554532675    2.6944537541
C        3.9599924878   -2.3277345958    2.7434725150
C        1.7671404434   -0.8845850461    4.2010434838
N        4.6510347758   -1.8762608475    3.8395697266
N        4.3910727088   -3.5643991358    2.4127319845
N        5.5133502922   -2.8866435261    4.1321143116
N        5.3644302366   -3.8599793313    3.3098409862
H        1.8087923880   -1.1969839692   -1.1984480383
H       -0.0001397896    0.0335443979   -0.0235027874
H        3.6197031825   -2.2692883651    0.1114845458
H        0.0028135986    0.1701044211    2.4369687064
H        1.9144262901   -1.8792314995    4.6334712128
H        2.5484326323   -0.2163690873    4.5755287164
H        0.7970362981   -0.5071049708    4.5360392904
19   

C        1.8008121074   -1.1430732247   -0.1135877976
C        0.7982316984   -0.4343597056    0.5396753342
C        2.8149768833   -1.7510608760    0.6292617987
C        0.8127668726   -0.3431517543    1.9317024930
C        2.8618877488   -1.6617753798    2.0359765664
C        1.8281938520   -0.9488275322    2.6964931493
C        3.9514987207   -2.3480409588    2.7456013570
C        1.7580302928   -0.8482804945    4.2014574194
N        4.5098277378   -2.0275472010    3.9587107502
N        4.5575342931   -3.4537549456    2.2563246309
N        5.4619606949   -2.9772193247    4.1594643505
N        5.4904297088   -3.8003373996    3.1773273866
H        1.7967792943   -1.2272941418   -1.1936086282
H        0.0070287465    0.0389940523   -0.0291776843
H        3.5911287264   -2.3052203884    0.1136990446
H        0.0192397596    0.2032782062    2.4265878503
H        1.8565560945   -1.8405709157    4.6524324542
H        2.5627102815   -0.2056495170    4.5712147078
H        0.8027894247   -0.4238256549    4.5226549157
19   

C        1.7851215635   -1.1874482413   -0.1204028301
C        0.7952335152   -0.4554597620    0.5233214877
C        2.7929168632   -1.7972297757    0.6288528539
C        0.8181686561   -0.3410827511    1.9123846326
C        2.8473026993   -1.6936119805    2.0374209285
C        1.8268858853   -0.9486340175    2.6856255524
C        3.9413727971   -2.3720542649    2.7462663155
C        1.7602336924   -0.7999968294    4.1871971145
N        4.3618243142   -2.2061840115    4.0441019461
N        4.7209919248   -3.3071917447    2.1543707971
N        5.4021291500   -3.0688870266    4.1883442075
N        5.6104839642   -3.7051975869    3.0967461103
H        1.7779145593   -1.2872294921   -1.1990965130
H        0.0091451955    0.0204405286   -0.0504863446
H        3.5567953406   -2.3632136816    0.1082722164
H        0.0355280600    0.2281292409    2.3988588770
H        1.7762109791   -1.7839585007    4.6657651187
H        2.6102793365   -0.2106965313    4.5441243722
H        0.8410156423   -0.2923607771    4.4923728095
19   

C        1.7690019964   -1.2234258710   -0.1251564338
C        0.7811884874   -0.4865484052    0.5147002830
C        2.7815467015   -1.8227623382    0.6257991663
C        0.8131257422   -0.3543156400    1.9014723578
C        2.8426805552   -1.7077621576    2.0346118930
C        1.8264778898   -0.9514359991    2.6772974018
C        3.9456562309   -2.3727523235    2.7424947441
C        1.7803579993   -0.7543787671    4.1742560561
N        4.2170642979   -2.4062428701    4.0896770981
N        4.8977458642   -3.0862967864    2.0958680308
N        5.3456891686   -3.1542510738    4.2048852074
N        5.7398683841   -3.5478279628    3.0524418056
H        1.7571036974   -1.3348707207   -1.2026727978
H       -0.0083634023   -0.0180441047   -0.0604439755
H        3.5406506710   -2.3925026691    0.1026114519
H        0.0347202579    0.2239464115    2.3840470896
H        1.6934641227   -1.7212423602    4.6791663128
H        2.6876076679   -0.2468292176    4.5157220301
H        0.9217192153   -0.1431235750    4.4655775699
