18   

C       -0.8336739444   -1.4334048861   -1.2121064144
C       -0.1697352743   -0.3462281972   -0.7128072135
C       -0.3635225376   -2.8679003690   -1.3806014513
C        1.0099957989    1.2742041909    0.7969273537
C       -1.4286618253    0.7542899492    1.1389840552
C       -0.0714820229    0.1949722070    0.7084843031
H       -1.4514705513   -1.1684394519   -2.0637476326
H       -0.0551192041    0.4501242952   -1.4408994325
H       -0.4133050411   -3.1636591888   -2.4327678751
H       -0.9968060012   -3.5395809196   -0.7939387376
H        0.6699444358   -2.9693059048   -1.0359911306
H        0.7760699468    2.1147443105    0.1359399513
H        1.9795271913    0.8576391781    0.5058077296
H        1.0900987663    1.6471530074    1.8229020547
H       -1.7327756082    1.5724693546    0.4780754309
H       -1.3764575804    1.1324566561    2.1646953845
H       -2.1913200215   -0.0296631553    1.0978792038
H        0.2014648677   -0.6273475245    1.3783968819
18   

C       -0.8398098099   -1.3706223320   -1.3092607874
C       -0.2381922569   -0.2587590809   -0.8086617955
C       -0.3285775671   -2.7972180965   -1.2894481677
C        1.0277173550    1.2026440845    0.7795798016
C       -1.4250354929    0.7622591944    1.1295401643
C       -0.0988465488    0.1768490060    0.6409115911
H       -1.4023584689   -1.1781839085   -2.2167616492
H       -0.2282018010    0.5852762497   -1.4905399643
H       -0.2832776824   -3.1978889863   -2.3064987683
H       -0.9959209017   -3.4245203017   -0.6914250244
H        0.6739565433   -2.8344546565   -0.8525447904
H        0.8187444169    2.0930724308    0.1782323129
H        1.9744524443    0.7671064385    0.4445926106
H        1.1388390445    1.5042735091    1.8259207275
H       -1.7024598520    1.6362283374    0.5313267051
H       -1.3436296703    1.0658133329    2.1779017792
H       -2.2209410198    0.0154739701    1.0466919005
H        0.1469792618   -0.6990543242    1.2508220662
18   

C       -0.8242707866   -1.3267154368   -1.4061564564
C       -0.3063203137   -0.1906083648   -0.8872719649
C       -0.3033438095   -2.7334403086   -1.2091878921
C        1.0328497174    1.1354281785    0.7500781184
C       -1.4263913078    0.7577412877    1.1217401719
C       -0.1291516213    0.1556099950    0.5789616335
H       -1.3230767224   -1.1957681796   -2.3605942409
H       -0.3611228345    0.6788407347   -1.5341143649
H       -0.1634692045   -3.2232992673   -2.1773880990
H       -1.0159011464   -3.3158574490   -0.6179008486
H        0.6567398676   -2.7143988296   -0.6844447180
H        0.8425587516    2.0628984358    0.2007331424
H        1.9585742680    0.6885226007    0.3739160975
H        1.1723248697    1.3767558035    1.8086028322
H       -1.6828058145    1.6727095818    0.5779711757
H       -1.3185335204    0.9989298264    2.1838410915
H       -2.2486211667    0.0437243006    1.0112135718
H        0.0958481838   -0.7590709400    1.1378454850
18   

C       -0.7716014029   -1.2839270259   -1.4816174882
C       -0.3574211586   -0.1310372482   -0.9214606145
C       -0.2866689025   -2.6744479848   -1.1472949851
C        1.0373605325    1.0982524260    0.7371036326
C       -1.4214168259    0.7573097835    1.1397823703
C       -0.1473685130    0.1490367118    0.5511803067
H       -1.1940094248   -1.1882292547   -2.4762213511
H       -0.4549392161    0.7542317762   -1.5411892684
H       -0.0750065002   -3.2298146741   -2.0658133702
H       -1.0526479662   -3.2104148765   -0.5792713567
H        0.6287941296   -2.6286686760   -0.5496671930
H        0.8556440228    2.0497874688    0.2273869995
H        1.9465467542    0.6482590895    0.3259242089
H        1.2015565735    1.2956791813    1.8011622285
H       -1.6667872585    1.6985777822    0.6374126225
H       -1.2905178042    0.9533259643    2.2085916019
H       -2.2608098295    0.0658285835    1.0155567516
H        0.0672700149   -0.7893264663    1.0732702928
18   

C       -0.6957058745   -1.2545540246   -1.5481569768
C       -0.3985501179   -0.0926264753   -0.9421290880
C       -0.2818812106   -2.6388601118   -1.1160452258
C        1.0400278961    1.0735050802    0.7185946055
C       -1.4155839182    0.7589258969    1.1545460421
C       -0.1608490008    0.1450796108    0.5314880430
H       -1.0368484884   -1.1753243723   -2.5748637649
H       -0.5266453983    0.8015208475   -1.5432335659
H       -0.0296697324   -3.2447525779   -1.9913463360
H       -1.1016426193   -3.1227123190   -0.5770148541
H        0.5948713553   -2.5944965366   -0.4631646471
H        0.8627360116    2.0390237793    0.2341772417
H        1.9356462947    0.6211469543    0.2810782635
H        1.2252825556    1.2438931149    1.7838585827
H       -1.6543683608    1.7155815529    0.6788118017
H       -1.2647818136    0.9271373144    2.2254935905
H       -2.2673630846    0.0832235738    1.0276645027
H        0.0480360294   -0.8059931226    1.0316904391
18   

C       -0.5900324873   -1.2463418167   -1.5965821440
C       -0.4226517702   -0.0827362683   -0.9494858760
C       -0.2687673155   -2.6311484366   -1.0975558449
C        1.0396530014    1.0530856498    0.7066729877
C       -1.4137737887    0.7562439440    1.1628981717
C       -0.1706695892    0.1362481441    0.5230093098
H       -0.8425617006   -1.1729406641   -2.6490120727
H       -0.5715243265    0.8144498117   -1.5411897220
H        0.0079664275   -3.2760403248   -1.9368129634
H       -1.1417619660   -3.0603019795   -0.5971513234
H        0.5686038630   -2.6059092673   -0.3942193144
H        0.8653816213    2.0244525986    0.2329026755
H        1.9271167901    0.5977283294    0.2558414206
H        1.2369884846    1.2121640676    1.7715014640
H       -1.6482222189    1.7193523500    0.6981960813
H       -1.2515694010    0.9131999517    2.2339145023
H       -2.2727732713    0.0893596476    1.0379957373
H        0.0345876445   -0.8194517086    1.0151237532
18   

C       -0.4899752133   -1.2410624136   -1.6235686469
C       -0.4686914656   -0.0836955233   -0.9457924111
C       -0.2452080909   -2.6283210756   -1.0908728950
C        1.0446048516    1.0161208355    0.6848771895
C       -1.4109638462    0.7988748164    1.1721118984
C       -0.1955519680    0.1359829100    0.5220895366
H       -0.6660549504   -1.1678931349   -2.6914647099
H       -0.6605948345    0.8102917748   -1.5298928531
H        0.0513922550   -3.2949172560   -1.9060008854
H       -1.1576824167   -3.0193160494   -0.6312962105
H        0.5552584267   -2.6216056402   -0.3455269479
H        0.8942392728    1.9888514777    0.2056364476
H        1.9122912300    0.5307828433    0.2269248127
H        1.2592905994    1.1770642079    1.7460412889
H       -1.6207799471    1.7662543987    0.7046193532
H       -1.2314459966    0.9564204527    2.2403009464
H       -2.2916761665    0.1582976323    1.0613571003
H       -0.0146400380   -0.8220280080    1.0190472915
18   

C       -0.3891869077   -1.2267656651   -1.6375780312
C       -0.5150830585   -0.0925639795   -0.9315600263
C       -0.2229356395   -2.6270428803   -1.1070041521
C        1.0297130781    1.0018696797    0.6697519056
C       -1.4187251222    0.8057082447    1.2010082712
C       -0.2200658862    0.1310665964    0.5322191222
H       -0.5786412209   -1.1472167153   -2.7027289663
H       -0.7792683597    0.7929195602   -1.5001938294
H        0.8398630338   -2.8614275338   -0.9964600199
H       -0.6712525361   -3.3450355297   -1.8000539715
H       -0.7146737565   -2.7352919699   -0.1359295845
H        0.8789271594    1.9732909760    0.1879882721
H        1.8856221240    0.5073999927    0.1995021238
H        1.2637803733    1.1662816707    1.7262568043
H       -1.6289398000    1.7733605148    0.7342734574
H       -1.2191771905    0.9652349027    2.2653572955
H       -2.3062177663    0.1717746887    1.1078611876
H       -0.0338124919   -0.8264396644    1.0283650855
18   

C       -0.2734334290   -1.2126172925   -1.6336765573
C       -0.5320326296   -0.1064674966   -0.9158979747
C       -0.2165930404   -2.6327442386   -1.1294115171
C        1.0277169636    1.0045581532    0.6615521056
C       -1.4183363971    0.8261749798    1.2129552349
C       -0.2273031490    0.1382352143    0.5441752150
H       -0.3740340486   -1.1093790782   -2.7088527457
H       -0.8179747748    0.7717029752   -1.4853610038
H        0.8233869233   -2.9294979329   -0.9649293301
H       -0.6640613825   -3.3091448845   -1.8636611990
H       -0.7669173078   -2.7317652580   -0.1890635585
H        0.8778818857    1.9700753280    0.1677331589
H        1.8780384342    0.4999883823    0.1919107037
H        1.2698768525    1.1821423523    1.7140669264
H       -1.6287568441    1.7882780555    0.7350432541
H       -1.2099007159    0.9990795265    2.2735198472
H       -2.3086723607    0.1941542226    1.1352868889
H       -0.0421411536   -0.8151358749    1.0493220681
18   

C       -0.1737253589   -1.2243199836   -1.6025073864
C       -0.5539136276   -0.1512097665   -0.8825300680
C       -0.2174370671   -2.6679401607   -1.1614523643
C        1.0276342618    1.0035197826    0.6456306874
C       -1.4135693478    0.8516696890    1.2299632731
C       -0.2326901867    0.1402981050    0.5676674776
H       -0.1917458288   -1.0881317960   -2.6785889288
H       -0.8729220422    0.7116802798   -1.4577943755
H        0.7950446169   -3.0249776500   -0.9515944308
H       -0.6545136892   -3.2886991226   -1.9491905810
H       -0.8241929315   -2.7751221920   -0.2571920988
H        0.8764815955    1.9541749517    0.1241183904
H        1.8708051654    0.4812091399    0.1825828601
H        1.2816328914    1.2120994297    1.6896083215
H       -1.6270166881    1.7999256930    0.7264737882
H       -1.1917465037    1.0550755031    2.2823790929
H       -2.3065175631    0.2203895668    1.1818904426
H       -0.0467659873   -0.8008620387    1.0957043034
18   

C       -0.0890115614   -1.2532810312   -1.5547133740
C       -0.5755706038   -0.2180918761   -0.8336746799
C       -0.2148024113   -2.7250021474   -1.2272229640
C        1.0251288010    1.0041932246    0.6270910119
C       -1.4116377531    0.8894994395    1.2416319851
C       -0.2397579753    0.1443339528    0.6005408683
H       -0.0293555808   -1.0663438506   -2.6216724570
H       -0.9405425848    0.6200556431   -1.4181867262
H        0.7672267270   -3.1369177398   -0.9771982291
H       -0.6186093810   -3.2696992539   -2.0858167789
H       -0.8846979671   -2.8697715299   -0.3741342149
H        0.8731198662    1.9295653807    0.0621310521
H        1.8623590184    0.4570233546    0.1824012069
H        1.2887238831    1.2612266003    1.6577777019
H       -1.6279216543    1.8142604072    0.6973617754
H       -1.1780071070    1.1404789718    2.2811476917
H       -2.3066950708    0.2594404596    1.2323323137
H       -0.0536253082   -0.7741580053    1.1674133739
18   

C       -0.0294133087   -1.2896162290   -1.4729457694
C       -0.5939350248   -0.2949262756   -0.7376291920
C       -0.2105651799   -2.7858309377   -1.3134086143
C        1.0260291288    1.0086677172    0.6349817639
C       -1.4085594469    0.9575456674    1.2694679441
C       -0.2474527274    0.1617628789    0.6701420109
H        0.0940575691   -1.0283534086   -2.5186742406
H       -1.0260147497    0.5045381618   -1.3306022186
H        0.7417894230   -3.2501610229   -1.0415536054
H       -0.5647297831   -3.2268468598   -2.2499199900
H       -0.9417190950   -2.9973216420   -0.5272588833
H        0.8799775712    1.8957428425    0.0101519110
H        1.8563619509    0.4253942572    0.2246683586
H        1.2963144728    1.3313971782    1.6452419409
H       -1.6208106542    1.8475396103    0.6686257590
H       -1.1655289585    1.2726214144    2.2891841444
H       -2.3089891622    0.3362082659    1.3066559750
H       -0.0679963994   -0.7207079844    1.2935747358
18   

C        0.0143144971   -1.3486016048   -1.3833532669
C       -0.6022865280   -0.3901021141   -0.6262870756
C       -0.2004080878   -2.8519935571   -1.4136350292
C        1.0344529430    1.0019108628    0.6419996494
C       -1.3995979152    1.0317924923    1.2814276677
C       -0.2497384599    0.1769162750    0.7436842311
H        0.1952329159   -1.0034700899   -2.3959365258
H       -1.1374859217    0.3407816884   -1.2236168762
H        0.7253146886   -3.3668068125   -1.1409071428
H       -0.5022171234   -3.1732780045   -2.4149808087
H       -0.9826098187   -3.1359127781   -0.7032522666
H        0.8991600784    1.8369508915   -0.0530592912
H        1.8578679321    0.3774374903    0.2815272311
H        1.3081514572    1.4025284083    1.6230265469
H       -1.6026179736    1.8753252295    0.6140681547
H       -1.1500061121    1.4219628090    2.2731950039
H       -2.3074379066    0.4263985315    1.3685647549
H       -0.0820409581   -0.6558701129    1.4349417729
