30   

C        7.4088334641   -5.7624291309    4.4739046734
C        8.5463279952   -9.0768788552    2.0728254882
C        8.9055942509   -8.8681496487    0.7438555943
C        7.5880264604   -8.2565264736    2.6721409907
C        5.8674916221   -6.0692259211    7.1904896409
C        8.3059586891   -7.8359464593    0.0215533464
C        6.7016489704   -6.2892326291    8.2906223600
C        7.2580200865   -3.9501650251    8.3286586406
C        6.9673930897   -7.2087360676    1.9595007073
C        5.7282989317   -4.7840181001    6.6407241102
C        7.4066587887   -5.2309857478    8.8679055526
C        7.3428932828   -7.0017612596    0.6060964835
C        6.4245821978   -3.7101105404    7.2292090413
C        6.1084805353   -5.8316144251    3.8837436596
C        5.9329487567   -6.3757122745    2.6157510687
N        8.4760200851   -5.7347804902    4.9420736606
N        4.8867109946   -4.5577003529    5.5587935879
N        4.9859542332   -5.1566374182    4.4170158075
O        4.7966623889   -6.1701124576    1.9578735073
Cl       8.4517086056   -5.5007349909   10.2400778764
Cl       6.6893603992   -5.6929245233   -0.3627941941
Cl       6.2833111696   -2.0819020511    6.5956089139
H        9.0080404112   -9.8762542678    2.6418422744
H        9.6501209052   -9.5011381872    0.2734139257
H        7.3142616915   -8.4490883472    3.7034994856
H        5.3225046301   -6.8979630234    6.7536344148
H        8.5928721210   -7.6655480939   -1.0096953111
H        6.8069718613   -7.2864263864    8.7016268173
H        7.8023021658   -3.1232297908    8.7680942520
H        4.2291416183   -5.5737084922    2.4801113083
30   

C        7.4340434616   -5.6053752183    4.3806631357
C        8.5202864546   -9.0843933305    2.1411751324
C        8.8646619475   -8.9512775165    0.7992773463
C        7.5762143314   -8.2245791402    2.7062580251
C        6.0074262511   -6.1714129210    7.1478857428
C        8.2653395494   -7.9540667406    0.0300701211
C        6.8706123458   -6.3746102297    8.2282941550
C        7.2419010743   -4.0030729894    8.3698263715
C        6.9519620993   -7.2116236404    1.9467952734
C        5.7574063483   -4.8775088283    6.6620413071
C        7.4971712823   -5.2913375014    8.8479296211
C        7.3162404463   -7.0797990579    0.5781187691
C        6.3765912228   -3.7798152542    7.2916586126
C        6.1170346657   -5.8311998838    3.8741944966
C        5.9375271114   -6.3380708243    2.5859440417
N        8.5160515496   -5.4478706074    4.7842822361
N        4.8776157479   -4.6685111428    5.6072644194
N        4.9676762447   -5.2526299008    4.4581083227
O        4.8528744645   -6.0141993870    1.8923555684
Cl       8.5753626757   -5.5399376773   10.1981665776
Cl       6.6780498936   -5.8180916912   -0.4621322406
Cl       6.0991372354   -2.1404936347    6.7362851167
H        8.9832776289   -9.8553758122    2.7471192338
H        9.5985833564   -9.6147434182    0.3548736715
H        7.3168685926   -8.3593290090    3.7503821351
H        5.5212425877   -7.0196026581    6.6801113304
H        8.5432018463   -7.8413136051   -1.0115538147
H        7.0576660573   -7.3779893903    8.5923586239
H        7.7254643196   -3.1565348637    8.8418388658
H        4.3013861930   -5.4110423759    2.4238056627
30   

C        7.4455351276   -5.4645795599    4.3275162015
C        8.5121933685   -9.1012847498    2.2212453290
C        8.8442284272   -9.0372331749    0.8718994401
C        7.5811956823   -8.2066168220    2.7523520860
C        6.1418210069   -6.2573876852    7.1387193533
C        8.2457768347   -8.0737657223    0.0611284268
C        7.0324348378   -6.4224903403    8.2028822781
C        7.2264864730   -4.0340924783    8.4031461299
C        6.9548172176   -7.2261473285    1.9518138787
C        5.7855693483   -4.9743849395    6.6930260376
C        7.5836228508   -5.3113256534    8.8442800992
C        7.3090784614   -7.1644561147    0.5727130218
C        6.3309464509   -3.8492776862    7.3424630885
C        6.1432556347   -5.8478668214    3.8836756551
C        5.9606342602   -6.3144753670    2.5735965907
N        8.5175231871   -5.1756716366    4.6817965585
N        4.8697263618   -4.8071621704    5.6619195261
N        4.9669804493   -5.3791760446    4.5079555501
O        4.9437916399   -5.8721950354    1.8471299589
Cl       8.6932129067   -5.5127924495   10.1767220698
Cl       6.6820608938   -5.9537655261   -0.5338974911
Cl       5.9234432414   -2.2218791837    6.8341378267
H        8.9753277979   -9.8454659310    2.8597102048
H        9.5685304735   -9.7275898051    0.4534100224
H        7.3350216289   -8.2894064115    3.8049736376
H        5.7124750841   -7.1273510346    6.6556208136
H        8.5155921076   -8.0145097265   -0.9870447576
H        7.2978398640   -7.4180040173    8.5386135295
H        7.6519471376   -3.1658822550    8.8915341862
H        4.4064110359   -5.2616349394    2.3842840562
30   

C        7.4350055742   -5.3207886432    4.2675276226
C        8.4948067579   -9.1141247657    2.2655352286
C        8.8136222369   -9.1146976334    0.9122653816
C        7.5809325115   -8.1847327090    2.7652460902
C        6.2569006029   -6.3253375729    7.1109481325
C        8.2179029726   -8.1817363174    0.0656227388
C        7.1679246153   -6.4446198228    8.1635804645
C        7.1874285204   -4.0526551102    8.4097998353
C        6.9566616051   -7.2308827344    1.9299087453
C        5.7997938961   -5.0644625982    6.6965887338
C        7.6415983786   -5.3083843365    8.8226897509
C        7.2975086381   -7.2376965172    0.5432654706
C        6.2688474052   -3.9143493590    7.3617628190
C        6.1716082716   -5.8533577842    3.8700775049
C        5.9902594090   -6.2756751409    2.5350625248
N        8.4764539631   -4.9055866985    4.5851445149
N        4.8558430309   -4.9485546440    5.6843512457
N        4.9727182561   -5.5038440483    4.5247384381
O        5.0591349430   -5.7133615482    1.7798840878
Cl       8.7741865409   -5.4534352752   10.1429677110
Cl       6.6774107580   -6.0805435296   -0.6237746706
Cl       5.7368957159   -2.3121899798    6.8895615976
H        8.9558489798   -9.8346993357    2.9319830000
H        9.5254732450   -9.8316902089    0.5178673739
H        7.3496499898   -8.2201587514    3.8237759862
H        5.8861891052   -7.2150633489    6.6154903978
H        8.4774414506   -8.1739966916   -0.9868182130
H        7.5080988726   -7.4242779903    8.4777014114
H        7.5530118222   -3.1649201670    8.9114505250
H        4.5384387028   -5.0901927182    2.3186144178
30   

C        7.4209746260   -5.1898542775    4.2369442718
C        8.4363782527   -9.1426716434    2.2860862613
C        8.7333426325   -9.1966205144    0.9296823154
C        7.5567281582   -8.1723493176    2.7684974668
C        6.3809158471   -6.3901172868    7.1085551337
C        8.1472635123   -8.2780028072    0.0618085271
C        7.3131609324   -6.4633335498    8.1463828427
C        7.1788909027   -4.0787428558    8.4270170200
C        6.9448789353   -7.2262233398    1.9134421183
C        5.8334990422   -5.1574902207    6.7213170164
C        7.7202561494   -5.3074394334    8.8156867433
C        7.2600055882   -7.2931814923    0.5199227484
C        6.2367638676   -3.9874262214    7.3947927977
C        6.2083674831   -5.8515453847    3.8791496148
C        6.0295282900   -6.2153145929    2.5129355336
N        8.4203526368   -4.6633537433    4.5228289847
N        4.8625543781   -5.0949042659    5.7308383492
N        4.9984298340   -5.6255755247    4.5625675434
O        5.2064935763   -5.5226940108    1.7432073273
Cl       8.8774741851   -5.3959757960   10.1193999921
Cl       6.6462219928   -6.1754075723   -0.6887827405
Cl       5.5930779210   -2.4179271218    6.9531093150
H        8.8892045249   -9.8528501492    2.9691318050
H        9.4200410515   -9.9447232494    0.5486879459
H        7.3477329245   -8.1698993487    3.8320848084
H        6.0605974055   -7.2953981735    6.6061934196
H        8.3881871843   -8.3145219425   -0.9944696361
H        7.7205230631   -7.4228784557    8.4419849121
H        7.4930129079   -3.1756828447    8.9361478136
H        4.7164416506   -4.8789738601    2.2860706382
30   

C        7.4067228046   -5.0467413213    4.2213712224
C        8.3626511236   -9.1913628075    2.2948058182
C        8.6265541735   -9.3013749539    0.9355691831
C        7.5338197149   -8.1710572060    2.7634500925
C        6.5163298504   -6.4355032330    7.1110060236
C        8.0543859571   -8.3913231330    0.0503126735
C        7.4609148862   -6.4401098768    8.1398947620
C        7.1450515927   -4.0739487836    8.4319399350
C        6.9415266134   -7.2257710600    1.8920586226
C        5.8697237958   -5.2486023917    6.7362565507
C        7.7831209790   -5.2586378385    8.8107790706
C        7.2165568713   -7.3571489228    0.4928246321
C        6.1881323729   -4.0525245353    7.4094656956
C        6.2692662889   -5.8362606944    3.8795692098
C        6.0992000884   -6.1464907901    2.4838271896
N        8.3429413087   -4.4084992153    4.4928233847
N        4.8826965667   -5.2636288357    5.7608531529
N        5.0547271845   -5.7629428636    4.5841747775
O        5.4018599143   -5.3397827690    1.7026473708
Cl       8.9543994104   -5.2626357277   10.1048116262
Cl       6.6053612767   -6.2750013599   -0.7497045059
Cl       5.4203118377   -2.5364764984    6.9798568361
H        8.8034340836   -9.8959209428    2.9914244862
H        9.2755896473  -10.0875301898    0.5653207627
H        7.3558265569   -8.1287874841    3.8316391573
H        6.2609215379   -7.3608333560    6.6079925606
H        8.2666435701   -8.4748656284   -1.0094541730
H        7.9431275321   -7.3666338641    8.4280253722
H        7.3935046080   -3.1510580861    8.9417933401
H        4.9558048018   -4.6629317717    2.2426830649
30   

C        5.9372704288   -7.1171198855    5.0130479338
C        9.3862088347   -7.1008398443    1.5413332519
C        9.2327424610   -7.7578768266    0.3277979099
C        8.2620864036   -6.6917590100    2.2591566525
C        5.6960517097   -4.9870211727    7.6604190864
C        7.9523669805   -7.9941668519   -0.1658159928
C        6.2817882928   -5.4566880092    8.8385150687
C        8.4544002540   -5.2382591800    7.8324877648
C        6.9459108654   -6.9248287260    1.7932699673
C        6.4827422900   -4.6495651687    6.5501824318
C        7.6682055256   -5.5843624925    8.9352655347
C        6.8044824300   -7.5911471223    0.5327185034
C        7.8857668415   -4.7703065289    6.6414240508
C        6.0752307887   -6.0981059409    4.0302329080
C        5.8021410072   -6.4972657289    2.6513144460
N        5.8085894163   -7.9589632254    5.8082478950
N        5.8638005017   -4.1357343282    5.4206410712
N        5.8430760994   -4.7351761912    4.2780827801
O        4.5589541808   -6.6823349599    2.2491925103
Cl       8.4088236730   -6.1511688390   10.4106040889
Cl       5.2674555479   -7.9784723496   -0.2266719312
Cl       8.9390738460   -4.3024093382    5.3204423284
H       10.3786505586   -6.9090120046    1.9342027116
H       10.1024588908   -8.0855302062   -0.2312026322
H        8.4392702394   -6.1858299893    3.1998801284
H        4.6179767558   -4.8868998397    7.5993725707
H        7.8345691873   -8.5087442579   -1.1125588700
H        5.6591539676   -5.7214474176    9.6855339924
H        9.5314282329   -5.3223395993    7.9044133328
H        3.9386728385   -6.3901854390    2.9399840067
30   

C        6.0588896918   -7.0799740361    4.8954892470
C        9.4116450703   -7.2066783059    1.6166957993
C        9.2440651114   -7.9568398222    0.4598178301
C        8.2982350858   -6.6830112295    2.2745633091
C        5.6756996027   -5.1208765251    7.6991057439
C        7.9608250409   -8.1757127014   -0.0353236619
C        6.3655151787   -5.5761819174    8.8250874820
C        8.4501336740   -5.1053340454    7.7242983029
C        6.9808251705   -6.8892180429    1.8010822865
C        6.3649329142   -4.6642396637    6.5670089986
C        7.7607237965   -5.5705243262    8.8479052717
C        6.8241525745   -7.6597767726    0.6046388427
C        7.7769200208   -4.6492055236    6.5838191027
C        6.0720869798   -5.9986020590    3.9689482899
C        5.8487993106   -6.3170070767    2.5849664348
N        6.0434940764   -7.9709561965    5.6462990126
N        5.6328307522   -4.1779980976    5.4931078631
N        5.6525560930   -4.7018247502    4.3135716867
O        4.6222717858   -6.3242527587    2.0889644088
Cl       8.6295125920   -6.1206291892   10.2582971525
Cl       5.2773243463   -8.0594083023   -0.1273389889
Cl       8.7112754516   -4.0302342431    5.2351253660
H       10.4064336638   -7.0294801587    2.0104237893
H       10.1048870951   -8.3720126503   -0.0529029475
H        8.4805122400   -6.1015145925    3.1702661596
H        4.5912466531   -5.1270255067    7.6952612098
H        7.8314991757   -8.7675461345   -0.9342119909
H        5.8168531525   -5.9346069984    9.6886682744
H        9.5325469788   -5.0863784204    7.7400721669
H        4.0040894512   -5.9405456439    2.7358271784
30   

C        6.2060101107   -7.0313569893    4.8434914631
C        9.3979768647   -7.2798254304    1.6340476895
C        9.2001557734   -8.0760955900    0.5125795872
C        8.3049943599   -6.6921117206    2.2721026493
C        5.6390343317   -5.1696327051    7.7254759209
C        7.9072763691   -8.2799579705    0.0350018902
C        6.3886673636   -5.5937190943    8.8249403659
C        8.4062700636   -4.9796083490    7.6715393164
C        6.9808163669   -6.8785054086    1.8115593881
C        6.2636944320   -4.6575037577    6.5798067845
C        7.7807138491   -5.5012646506    8.8076941098
C        6.7915643790   -7.7007792694    0.6572776537
C        7.6727795232   -4.5525174531    6.5568420413
C        6.0559800861   -5.9385720667    3.9407602165
C        5.8717650633   -6.2238300139    2.5594249026
N        6.3323878371   -7.9311018301    5.5731719274
N        5.4655236280   -4.2167424116    5.5325217848
N        5.5050270560   -4.7056689070    4.3378550149
O        4.6772973089   -6.0935130708    2.0034830718
Cl       8.7231272771   -6.0154866902   10.1840479720
Cl       5.2231372277   -8.0946686648   -0.0293503656
Cl       8.5289737668   -3.8638249144    5.1897104855
H       10.4001704651   -7.1153472466    2.0142579063
H       10.0449016260   -8.5395541855    0.0147033478
H        8.5049792248   -6.0723402421    3.1385292856
H        4.5575432267   -5.2454998418    7.7523204956
H        7.7537103801   -8.9098884518   -0.8336490683
H        5.8890616591   -5.9967663804    9.6985708768
H        9.4855363188   -4.8946771881    7.6566060301
H        4.0732778320   -5.6559085175    2.6296342524
30   

C        6.3706007104   -6.9658032570    4.8205047074
C        9.3959140964   -7.3193863335    1.6209663788
C        9.1623709350   -8.1679113596    0.5445859166
C        8.3246700302   -6.6875700851    2.2543364079
C        5.5716047362   -5.2015087272    7.7504778391
C        7.8557359119   -8.3821232540    0.1091358406
C        6.3507294104   -5.5898397827    8.8425164572
C        8.3235352679   -4.8584703940    7.6803056931
C        6.9901539093   -6.8818107988    1.8316982873
C        6.1585485709   -4.6495100722    6.6034839834
C        7.7354070625   -5.4216779473    8.8166744548
C        6.7627616980   -7.7595074054    0.7293282204
C        7.5600944976   -4.4645221385    6.5731147585
C        6.0492721750   -5.8971223467    3.9316857094
C        5.9034578389   -6.1698924152    2.5549107317
N        6.6424073963   -7.8449734271    5.5355693424
N        5.3264154160   -4.2570850336    5.5625503038
N        5.3915006953   -4.7266786554    4.3604652305
O        4.7534202035   -5.9223863732    1.9451245803
Cl       8.7139694984   -5.8953095759   10.1824464800
Cl       5.1677880437   -8.1711067316    0.1198460266
Cl       8.3694714972   -3.7247595024    5.2038238661
H       10.4087227924   -7.1476792803    1.9683836752
H        9.9900823022   -8.6644171960    0.0499733543
H        8.5454734052   -6.0243697647    3.0832982410
H        4.4962545188   -5.3378522306    7.7836328572
H        7.6736704898   -9.0538828000   -0.7218290508
H        5.8799534402   -6.0252530790    9.7166200168
H        9.3966837285   -4.7164279338    7.6586659738
H        4.1602306398   -5.4485195308    2.5554902058
30   

C        6.5039044237   -6.9209392499    4.8000522386
C        9.3992859875   -7.3775709216    1.6018477849
C        9.1307589088   -8.2511502864    0.5530349465
C        8.3509669786   -6.7090277375    2.2364631969
C        5.5168718134   -5.2770087472    7.7675734362
C        7.8122856413   -8.4548384647    0.1474176892
C        6.3258368992   -5.6229024729    8.8520505689
C        8.2401579762   -4.7550249699    7.6860955537
C        7.0075716927   -6.8924594566    1.8410438708
C        6.0594857134   -4.6791325053    6.6219233062
C        7.6966141446   -5.3659691174    8.8200626539
C        6.7434561828   -7.7951519153    0.7709079588
C        7.4460239849   -4.4008212971    6.5867452005
C        6.0368460989   -5.8959649625    3.9230356869
C        5.9411662511   -6.1374189606    2.5459636769
N        6.8981602970   -7.7636580974    5.5020243536
N        5.1955049963   -4.3406831320    5.5874139226
N        5.2853048398   -4.7919263675    4.3792187926
O        4.8602673212   -5.7600487129    1.8765186714
Cl       8.7120876170   -5.7903111826   10.1751413978
Cl       5.1246390592   -8.1889326898    0.2165262028
Cl       8.1984841577   -3.6001664346    5.2190574819
H       10.4212189491   -7.2142073808    1.9257474919
H        9.9405945189   -8.7750292008    0.0570760090
H        8.5935288079   -6.0242897503    3.0418148113
H        4.4529412913   -5.4836255022    7.8049509993
H        7.6023110987   -9.1458915866   -0.6607987263
H        5.8893187008   -6.0954513589    9.7246235621
H        9.3020788985   -4.5453233082    7.6596562080
H        4.2705916009   -5.2645048645    2.4733556464
30   

C        6.6417824224   -6.8402206224    4.8031461460
C        9.4073683222   -7.4060812278    1.5893049852
C        9.0983930104   -8.2998200233    0.5680865280
C        8.3862868183   -6.7024169665    2.2308153550
C        5.4642816970   -5.3517711662    7.8070989540
C        7.7670299780   -8.4881268928    0.1967078034
C        6.2974071659   -5.6516510694    8.8868458601
C        8.1417340280   -4.6298964317    7.7328773155
C        7.0323116172   -6.8729905901    1.8696938991
C        5.9600027857   -4.7010721198    6.6692907253
C        7.6458390160   -5.2955158651    8.8579513967
C        6.7266918152   -7.7925793636    0.8290131897
C        7.3220640056   -4.3185467580    6.6389711063
C        6.0321899392   -5.8753067708    3.9442173457
C        5.9876343418   -6.0835288238    2.5655867613
N        7.1540020252   -7.6324379445    5.4877507564
N        5.0711970840   -4.4187598387    5.6386580014
N        5.1889796317   -4.8487908211    4.4247092701
O        4.9867036294   -5.5830024667    1.8513186224
Cl       8.6915218952   -5.6659743347   10.2059104002
Cl       5.0836511660   -8.1555628078    0.3296007693
Cl       8.0121829395   -3.4463990681    5.2821015107
H       10.4393040908   -7.2539917067    1.8858342484
H        9.8870560063   -8.8503449721    0.0669029285
H        8.6562189077   -6.0008147063    3.0127265213
H        4.4183745257   -5.6361683636    7.8415105781
H        7.5251260258   -9.1931883266   -0.5901579493
H        5.8973507670   -6.1663745352    9.7529784867
H        9.1858880886   -4.3442477199    7.7088221104
H        4.3975130523   -5.0763316194    2.4396100658
30   

C        6.7487598552   -6.7880782302    4.8092849220
C        9.3904255742   -7.4733994722    1.5572326869
C        9.0389171482   -8.3825147080    0.5628649076
C        8.3988213101   -6.7388383020    2.2107521167
C        5.4142112755   -5.4585959350    7.8337311978
C        7.6948363789   -8.5544111464    0.2295176796
C        6.2775445942   -5.6928094893    8.9058712989
C        8.0181459304   -4.5057537890    7.7490637919
C        7.0340336349   -6.8963744609    1.8887625617
C        5.8434677551   -4.7596962065    6.6977770449
C        7.5900896783   -5.2217971360    8.8710990987
C        6.6852810222   -7.8270322790    0.8753988922
C        7.1662419697   -4.2571121702    6.6634100569
C        6.0056774042   -5.9100666458    3.9611116813
C        6.0118548789   -6.0782403188    2.5810984261
N        7.3704172947   -7.5084171099    5.4827990585
N        4.9267126816   -4.5551178524    5.6728497099
N        5.0705901483   -4.9730819279    4.4569093157
O        5.1015829660   -5.4622295959    1.8342575484
Cl       8.6741958396   -5.5141438829   10.2079440344
Cl       5.0198113973   -8.1533381513    0.4301661072
Cl       7.7679967481   -3.3177883209    5.3093414111
H       10.4323429706   -7.3328540023    1.8229821870
H        9.8047268760   -8.9562965843    0.0524183726
H        8.6990497496   -6.0242004695    2.9694563318
H        4.3972770433   -5.8331508069    7.8719276084
H        7.4195124857   -9.2689071869   -0.5375673514
H        5.9294778194   -6.2467997390    9.7701882571
H        9.0339957772   -4.1319088550    7.7204389262
H        4.5075181459   -4.9515059191    2.4143465313
30   

C        6.8955024577   -6.6818074657    4.7914499320
C        9.3838111278   -7.5375701802    1.4746252533
C        8.9755170269   -8.4707296473    0.5244154811
C        8.4330527342   -6.7628544641    2.1428326204
C        5.3680019775   -5.5932122299    7.8164510664
C        7.6159296063   -8.6251759197    0.2485840226
C        6.2388365767   -5.7795481937    8.8919123311
C        7.8719055472   -4.3983937370    7.7949574768
C        7.0546709416   -6.9064758822    1.8800845379
C        5.7413179035   -4.8219408394    6.7082425075
C        7.5021299042   -5.1877977186    8.8882671638
C        6.6484586943   -7.8565798877    0.9106149652
C        7.0103004817   -4.1952075006    6.7072413162
C        6.0229157525   -5.9186130978    3.9547775861
C        6.0666587510   -6.0516126296    2.5735291312
N        7.6230167438   -7.3090062114    5.4522420949
N        4.8228138335   -4.6752247263    5.6752187816
N        5.0061743136   -5.0743413005    4.4575981250
O        5.2483088676   -5.3344237512    1.8103714617
Cl       8.5967801754   -5.4235936725   10.2277585913
Cl       4.9580507769   -8.1427353433    0.5408636503
Cl       7.5334808134   -3.1647007548    5.3875347974
H       10.4379919387   -7.4090900766    1.6941459873
H        9.7096135898   -9.0750781247    0.0027710569
H        8.7750056504   -6.0293215690    2.8649148297
H        4.3903834508   -6.0621202458    7.8293459182
H        7.2962484482   -9.3553749569   -0.4857809876
H        5.9357386562   -6.3910473919    9.7340534756
H        8.8493823957   -3.9324150561    7.7899864208
H        4.6530143828   -4.8165263461    2.3829084120
