27   

C        2.4506187762    1.0384553169   -0.4425080616
C        1.4321088306    0.2124066039   -0.9018014633
C        0.6507466717   -4.0845350913   -1.5569794183
C        2.2679076077    1.7788021990    0.7258693123
C        1.5952384577   -2.6943461989   -0.0816760992
C        0.4730904664   -2.8253622324   -0.8622485340
C        0.2555276000    0.1343142468   -0.1500406673
C        0.1294018684    0.9621627734    1.0040157897
C        1.8483865107   -4.5990342493   -1.1526392115
C       -0.7348448637   -1.9778032921   -1.0471709078
C       -2.1387384143   -0.1132653801   -0.2078832274
C       -2.1305665515    0.1539147269    1.3009404038
N        1.1316117820    1.7460414623    1.4294837958
N       -0.8344802343   -0.6707927613   -0.5504795289
O       -1.7234988655   -2.4605738505   -1.6018475186
O        2.4461245724   -3.7577188420   -0.2524635684
O       -1.0487631446    1.0080638028    1.7253670492
Br       2.5893396262   -6.2551859102   -1.7435553081
H        3.3854440343    1.1230550483   -0.9832671610
H        1.5511461588   -0.3481439467   -1.8238934996
H       -0.0421270448   -4.5380931522   -2.2590989148
H        3.0734189454    2.4149274936    1.0743089042
H        1.7960243944   -1.8831650728    0.6078645876
H       -2.9616193532   -0.7931852994   -0.4507100223
H       -2.3021481903    0.8194769451   -0.7575751498
H       -3.0821364158    0.6133134768    1.5856699568
H       -2.0541355013   -0.8002487137    1.8323622111
27   

C        2.4625380767    0.9273081944   -0.4423235827
C        1.4287622435    0.1123430294   -0.8860386255
C        0.7507306376   -3.9726022710   -1.7138086946
C        2.2843058701    1.7138248533    0.6955724519
C        1.4512520578   -2.7821613440    0.0481165459
C        0.4406688394   -2.8329804391   -0.8773501237
C        0.2380280669    0.0936245779   -0.1516756293
C        0.1224268728    0.9610248867    0.9746515929
C        1.9178734082   -4.5019972480   -1.2427762070
C       -0.7867114330   -2.0086418702   -1.0270931651
C       -2.1654580141   -0.1158252114   -0.2029895109
C       -2.1474728508    0.1956612426    1.2965835347
N        1.1392713217    1.7340416306    1.3851793102
N       -0.8695492805   -0.6974444295   -0.5386908038
O       -1.7945065342   -2.5112702930   -1.5253022508
O        2.3689759622   -3.7795784824   -0.1690020869
O       -1.0580806431    1.0552797599    1.6869814396
Br       2.7963978513   -6.0364875126   -1.9599935907
H        3.4060221877    0.9676466564   -0.9730619036
H        1.5487267781   -0.4814976939   -1.7867758812
H        0.1602422600   -4.3455019893   -2.5448314870
H        3.1015331235    2.3418178950    1.0312359921
H        1.5209697443   -2.0669474243    0.8600265754
H       -2.9972468304   -0.7933818810   -0.4205729222
H       -2.3226530946    0.8022078991   -0.7785896672
H       -3.0941600287    0.6700624100    1.5727768596
H       -2.0739403023   -0.7425128041    1.8561547471
27   

C        2.4470792000    0.8782836838   -0.4665480220
C        1.4035744717    0.0672175936   -0.8935241915
C        0.8634443454   -3.7965085190   -1.8655002760
C        2.2775242594    1.6924400298    0.6524800206
C        1.3265356065   -2.8657767764    0.1195690725
C        0.4210063895   -2.8098804713   -0.9054660756
C        0.2096543627    0.0805655625   -0.1629243304
C        0.1064661692    0.9720822629    0.9462151050
C        2.0055155941   -4.3484619893   -1.3587809043
C       -0.8359345832   -2.0217124363   -1.0067229410
C       -2.1996076424   -0.1118041206   -0.1918123129
C       -2.1645140224    0.2277142164    1.3007904035
N        1.1323533350    1.7419415618    1.3401329790
N       -0.9099664996   -0.7043725861   -0.5339460052
O       -1.8608175294   -2.5567581415   -1.4279679523
O        2.3132482975   -3.7818243041   -0.1485189235
O       -1.0702110066    1.0935681393    1.6604933949
Br       3.0255145734   -5.7250837136   -2.1985578334
H        3.3915904821    0.8939697884   -0.9967170290
H        1.5208225596   -0.5451624262   -1.7817867311
H        0.3735704849   -4.0632463608   -2.7964706525
H        3.1022215353    2.3178583263    0.9743838478
H        1.2724591665   -2.2769967814    1.0287406323
H       -3.0369410846   -0.7892053105   -0.3871794498
H       -2.3604602009    0.7961494744   -0.7821701377
H       -3.1073199520    0.7088352175    1.5785884499
H       -2.0853109853   -0.6994998222    1.8775393996
27   

C        2.4552351523    0.7963861090   -0.4557065639
C        1.3995298255   -0.0118086042   -0.8566631138
C        0.9701233170   -3.6484009075   -1.8629583380
C        2.2943429999    1.6574676873    0.6283382615
C        1.1914135193   -3.0201275735    0.2780025072
C        0.3974508850   -2.8307478625   -0.8175879479
C        0.2004762070    0.0512889862   -0.1359625824
C        0.1093827305    0.9873082733    0.9376264359
C        2.0767170423   -4.2423623026   -1.3251229207
C       -0.8776963695   -2.0641840818   -0.8981090442
C       -2.2139326383   -0.1033391285   -0.1589540438
C       -2.1722699395    0.2925487110    1.3190314744
N        1.1465593844    1.7548657821    1.3061315302
N       -0.9336736548   -0.7269791441   -0.4819232393
O       -1.9176971618   -2.6248877223   -1.2379990768
O        2.2370260255   -3.8594525637   -0.0176978078
O       -1.0668426620    1.1578287899    1.6424473439
Br       3.2323245919   -5.4479895029   -2.2479307206
H        3.4027343559    0.7733193739   -0.9801728839
H        1.5139814903   -0.6572711621   -1.7209412857
H        0.5883325771   -3.7840668577   -2.8695478125
H        3.1284823177    2.2806589744    0.9295426441
H        1.0189653025   -2.5749885322    1.2517751427
H       -3.0620771710   -0.7742839412   -0.3278009625
H       -2.3628155905    0.7838881270   -0.7829887082
H       -3.1082812196    0.7963429492    1.5790047257
H       -2.1036255934   -0.6124602522    1.9312259597
27   

C        2.4392078561    0.7515257841   -0.4962579910
C        1.3671903036   -0.0478638440   -0.8706577826
C        1.0042177960   -3.4868666635   -1.8597471153
C        2.3018963011    1.6374891043    0.5705904525
C        1.0684362295   -3.1764234084    0.3602748619
C        0.3463587292   -2.8394739172   -0.7468406872
C        0.1758630406    0.0483560872   -0.1412405422
C        0.1099774492    1.0081941250    0.9134696247
C        2.0872959806   -4.1370621165   -1.3391410675
C       -0.9420306558   -2.0837557990   -0.7849409179
C       -2.2392644798   -0.0645927332   -0.1387268519
C       -2.1798990666    0.3608081633    1.3300088968
N        1.1619738872    1.7677974896    1.2558372034
N       -0.9738261439   -0.7212096295   -0.4560728834
O       -2.0006725493   -2.6673462019   -1.0039991188
O        2.1514067468   -3.9483411830    0.0180545182
O       -1.0562920519    1.2122507700    1.6262017552
Br       3.3312776686   -5.1751651515   -2.3467240282
H        3.3814668420    0.7019213579   -1.0281757726
H        1.4642910933   -0.7108600809   -1.7227752111
H        0.6942319524   -3.4796859700   -2.8994224204
H        3.1485477503    2.2533680371    0.8511956355
H        0.8205256090   -2.8811703513    1.3738286789
H       -3.1035581635   -0.7184724205   -0.2913369438
H       -2.3725521708    0.8129277276   -0.7797989658
H       -3.1043775948    0.8876387301    1.5854560931
H       -2.1236070795   -0.5323222178    1.9606129975
27   

C        2.4465561034    0.6688630556   -0.5517157840
C        1.3511233511   -0.1112434793   -0.8984796950
C        0.9548066337   -3.3909701438   -1.8470172620
C        2.3461514014    1.5711111061    0.5054902358
C        0.9707426780   -3.3846212515    0.3945674313
C        0.2776698084   -2.8912907385   -0.6699280488
C        0.1750928273    0.0193803421   -0.1516142733
C        0.1468947447    0.9953815725    0.8905031909
C        2.0216559397   -4.1159615801   -1.3966901471
C       -1.0047449091   -2.1208092699   -0.6272724720
C       -2.2360567184   -0.0230435774   -0.1241254211
C       -2.1584523156    0.4214746558    1.3376306939
N        1.2203045545    1.7364855394    1.2059525509
N       -0.9958100632   -0.7315595289   -0.4305166125
O       -2.0853172415   -2.7023094449   -0.6733534962
O        2.0556362870   -4.1143992430   -0.0257294563
O       -1.0039329560    1.2369846003    1.6171840852
Br       3.2829435930   -5.0160435130   -2.5099042159
H        3.3788898049    0.5914905955   -1.0975304083
H        1.4189022539   -0.7841459490   -1.7440809329
H        0.6702492310   -3.2400676450   -2.8829320461
H        3.2106009748    2.1713405831    0.7649035758
H        0.7011920929   -3.2284476020    1.4332201545
H       -3.1258828576   -0.6427691215   -0.2723208060
H       -2.3346756268    0.8498270866   -0.7777469883
H       -3.0627616966    0.9852356681    1.5862593917
H       -2.1329596653   -0.4636345930    1.9814329714
27   

C        2.2240201624    1.6210839941   -0.0995981967
C        1.5560581499    0.4458029988    0.2187977858
C        1.0652365187   -1.6666906170   -2.3015763602
C        1.4983151774    2.7432714485   -0.4953603169
C        2.0106590930   -2.8991593359   -0.6836494761
C        0.8692632937   -2.2134426087   -0.9767355599
C        0.1611883742    0.4211444208    0.1095306871
C       -0.5055616576    1.6255131054   -0.2674133307
C        2.3086714251   -2.0668798607   -2.7008760299
C       -0.3122911924   -2.0128148807   -0.0843297102
C       -1.9322643463   -0.4354659211    0.9457375770
C       -2.6275774823    0.4885002895   -0.0569662780
N        0.1640177807    2.7485241303   -0.5704383853
N       -0.6057151285   -0.7331353535    0.4114919104
O       -1.1123461569   -2.9198301643    0.1307817775
O        2.9051870226   -2.8219529304   -1.7225710177
O       -1.8850677159    1.6951899449   -0.3203023509
Br       3.1144934776   -1.6318320397   -4.3745050080
H        3.3038197075    1.6806847765   -0.0396358641
H        2.1162862993   -0.4179294559    0.5551534298
H        0.3718162025   -1.0549875369   -2.8691544413
H        2.0345032455    3.6520916625   -0.7431688062
H        2.1934129916   -3.4260276623    0.2463575705
H       -1.8384683519    0.0639452570    1.9155267026
H       -2.5392604765   -1.3333820340    1.0974651680
H       -2.7755730906   -0.0502033979   -0.9986138644
H       -3.6157904808    0.7547197288    0.3301848407
27   

C        2.1173028113    1.7050626107   -0.3748032250
C        1.4903541691    0.5031898801   -0.0732534382
C        0.8148842556   -1.3976073189   -2.5511658342
C        1.3514450408    2.8494500813   -0.5891032635
C        1.7751605004   -2.9532407808   -1.2477093795
C        0.6989997579   -2.1155184366   -1.2998871418
C        0.0917568166    0.4759258004   -0.0152745099
C       -0.6127790566    1.7014043799   -0.2121408432
C        1.9528096954   -1.8571699559   -3.1510754691
C       -0.3403489719   -1.9698123172   -0.2406036901
C       -1.8971448971   -0.4665142302    0.9828952572
C       -2.6960685982    0.5332214800    0.1431448603
N        0.0177926100    2.8499435767   -0.5032464189
N       -0.6327338805   -0.7049037509    0.2915093249
O       -1.0294220677   -2.9255795242    0.1109736875
O        2.5568742666   -2.8085625551   -2.3677229187
O       -1.9880609518    1.7652571360   -0.0934538768
Br       2.6209597074   -1.2574499587   -4.8343781931
H        3.1966122996    1.7676527667   -0.4404688852
H        2.0863059494   -0.3807489611    0.1212017962
H        0.1420750072   -0.6402024344   -2.9397929848
H        1.8557167236    3.7792615521   -0.8258074587
H        1.9889507000   -3.6348975249   -0.4317506239
H       -1.7042730425   -0.0535002835    1.9783185847
H       -2.4858919851   -1.3799377770    1.1124036414
H       -2.9430700618    0.0760009771   -0.8205128122
H       -3.6377081365    0.7552773020    0.6544109380
27   

C        2.0315356702    2.2310343163    0.4006915404
C        1.5858823879    0.9195288412    0.4996542345
C        1.8425919670   -0.8168878296   -2.0658991510
C        1.1289371032    3.2459585105    0.0884214218
C        2.6322404356   -2.5340160297   -0.8506429574
C        1.5436619145   -1.7172730717   -0.9719578377
C        0.2325416735    0.6545391472    0.2576283028
C       -0.6295006997    1.7574749674   -0.0188936975
C        3.0906305730   -1.1541577800   -2.5073177645
C        0.3290972189   -1.8118124319   -0.1172267022
C       -1.7098578684   -0.6947646062    0.7615243400
C       -2.4927509665    0.2302917699   -0.1740730712
N       -0.1725418799    3.0161935816   -0.1106711037
N       -0.3103072662   -0.6529287122    0.3469614637
O       -0.1856667723   -2.9017984157    0.1307515879
O        3.5930752157   -2.1997595598   -1.7737863997
O       -1.9892629863    1.5798588803   -0.1882296922
Br       4.0138345310   -0.2930858582   -3.9376849908
H        3.0725761494    2.4781813267    0.5689663066
H        2.2809544624    0.1320096429    0.7682687534
H        1.2111841235   -0.0279767386   -2.4615662502
H        1.4929434709    4.2640817008    0.0123130577
H        2.7268810009   -3.3348186968   -0.1252397229
H       -1.8018345946   -0.3506415753    1.7967875250
H       -2.1336411120   -1.7023804213    0.7063504360
H       -2.4535475602   -0.1719414761   -1.1915877226
H       -3.5423069340    0.2441162448    0.1352153096
27   

C        2.2407965488    1.7141413420    0.3008474047
C        1.5917988141    0.5141747137    0.5608383784
C        1.9438695065   -1.6859264478   -1.5296251430
C        1.5484135582    2.7548375462   -0.3159787271
C        2.0959533606   -3.4443754315   -0.1382302824
C        1.3037925951   -2.3655411756   -0.4213422423
C        0.2545352311    0.3814401086    0.1691510803
C       -0.3901436649    1.5095468010   -0.4197486176
C        3.0791467638   -2.3931805214   -1.8074920403
C        0.0222769917   -2.1031460243    0.2842891723
C       -1.9146148762   -0.5844938767    0.6208926027
C       -2.4339939655    0.2324129743   -0.5657679357
N        0.2613119926    2.6575850573   -0.6631142229
N       -0.4869408448   -0.8026095934    0.4084431303
O       -0.6524201854   -3.0356222783    0.7230644259
O        3.1944259690   -3.4684639583   -0.9628943133
O       -1.7313808473    1.4765961241   -0.7503363089
Br       4.3305506149   -1.9554101352   -3.1794481985
H        3.2786151043    1.8555102393    0.5767661283
H        2.1186669691   -0.2900636972    1.0628296040
H        1.5995114344   -0.7973750614   -2.0488186970
H        2.0698067286    3.6840497699   -0.5149277414
H        1.8861492433   -4.1824731328    0.6285611092
H       -2.0728880609   -0.0366449891    1.5555033998
H       -2.4755577082   -1.5223506362    0.6831634283
H       -2.3409479973   -0.3636725111   -1.4793748380
H       -3.4974703901    0.4418658620   -0.4154432544
27   

C        2.0926420356    2.0891502487    0.5865042734
C        1.5539469682    0.8216009489    0.7655932390
C        2.1850591184   -1.2428650147   -1.3676157027
C        1.3159848537    3.0957884748    0.0147266899
C        2.2635820606   -3.2101070061   -0.2842429381
C        1.5226408873   -2.0611816056   -0.3701565069
C        0.2414865296    0.5898443188    0.3387138725
C       -0.4972786150    1.6862619868   -0.1967450863
C        3.2849550573   -1.9452420746   -1.7715037661
C        0.2394416862   -1.9101261312    0.3632556101
C       -1.8340296345   -0.5905729001    0.7101495705
C       -2.4167701376    0.2410853076   -0.4366567491
N        0.0487119624    2.9010992106   -0.3631317637
N       -0.3913240088   -0.6665129913    0.5041139955
O       -0.3231616892   -2.8980220499    0.8392607729
O        3.3567343956   -3.1466151708   -1.1136796156
O       -1.8268343524    1.5508828557   -0.5479461684
Br       4.5394450054   -1.3519271205   -3.0808658400
H        3.1082117906    2.3093613245    0.8919757023
H        2.1439064693    0.0403271752    1.2330863503
H        1.8760943039   -0.2741070160   -1.7461773398
H        1.7516115629    4.0789837918   -0.1209808794
H        2.0210907572   -4.0599201253    0.3450851182
H       -2.0490553563   -0.1132977664    1.6717482251
H       -2.3055135280   -1.5785462926    0.7113686059
H       -2.2655421636   -0.2936846215   -1.3799160949
H       -3.4956199865    0.3468666025   -0.2869442460
27   

C        2.3488988596    1.8457774815   -0.4836965200
C        1.5361547123    0.7899001098   -0.8766161194
C        2.1647755282   -1.9203340344    0.3418843303
C        1.9240156055    2.7056984110    0.5286539491
C        1.3887264879   -3.6127286648   -0.9143624988
C        1.0961087892   -2.3214185667   -0.5555801647
C        0.3162695454    0.6104557969   -0.2163924659
C       -0.0637483173    1.5625892966    0.7747090009
C        3.0297430731   -2.9755558552    0.4082422430
C       -0.2114801005   -1.7240833468   -0.9375628832
C       -1.9885520737   -0.0786276491   -0.4037701357
C       -2.1674101341    0.4045237353    1.0394024420
N        0.7427917857    2.5713463901    1.1399368964
N       -0.5811630901   -0.4230803849   -0.5727724254
O       -1.0283310265   -2.3917337384   -1.5756158390
O        2.5799664013   -4.0157353793   -0.3625648238
O       -1.3018424162    1.5036917307    1.3860943795
Br       4.6254816407   -3.0154527839    1.4535214600
H        3.3076469908    2.0156129309   -0.9581888469
H        1.8456491991    0.1284453609   -1.6793382643
H        2.2682984761   -0.9926808777    0.8936640838
H        2.5708661334    3.5227553458    0.8267583709
H        0.7654245604   -4.2424224271   -1.5406081120
H       -2.6484087777   -0.9339934861   -0.5811637846
H       -2.2663324350    0.7136172297   -1.1065842019
H       -3.2081723816    0.7092890918    1.1859943723
H       -1.9683280851   -0.4274242454    1.7226342705
27   

C        2.3750414490    1.7406371875   -0.4535418872
C        1.5419433946    0.6953408594   -0.8306745002
C        2.0452118472   -1.9952587830    0.4807012396
C        1.9546692673    2.6414113649    0.5238573066
C        1.4925105914   -3.5225807487   -1.0722985548
C        1.0552101383   -2.3484953684   -0.5185140411
C        0.3036119030    0.5673047692   -0.1913961357
C       -0.0663403459    1.5570286775    0.7668553546
C        3.0110180886   -2.9596164039    0.4217922501
C       -0.2666874435   -1.7698734242   -0.8720753403
C       -2.0168930463   -0.0814908038   -0.3750844031
C       -2.1926058350    0.4486000850    1.0512793671
N        0.7597165581    2.5554912752    1.1166064844
N       -0.6150802800   -0.4557536571   -0.5315161509
O       -1.1103521121   -2.4572747123   -1.4506326085
O        2.6969818098   -3.8974460220   -0.5285050224
O       -1.3122517012    1.5453835101    1.3643035748
Br       4.5715623237   -3.0107679149    1.5182775993
H        3.3466574970    1.8705471802   -0.9142723468
H        1.8519011560    0.0057081205   -1.6086927729
H        2.0316471006   -1.1509255499    1.1620125169
H        2.6173653719    3.4502566362    0.8092735854
H        0.9610806005   -4.0872185134   -1.8311159670
H       -2.6921436506   -0.9295613531   -0.5274292086
H       -2.2796180134    0.6934953811   -1.1024570353
H       -3.2290681401    0.7732380925    1.1849961150
H       -2.0073809591   -0.3641812904    1.7609684071
27   

C        2.4641027005    1.3595795325   -0.3494425912
C        1.5432629088    0.4007345391   -0.7511627941
C        1.7875281607   -2.3404894144    0.5763696815
C        2.1236779900    2.2682990947    0.6511805911
C        1.3228314152   -3.6176222767   -1.2136926912
C        0.8356822240   -2.5612609668   -0.4937184315
C        0.2975866351    0.3649067921   -0.1137178483
C        0.0164715552    1.3570244794    0.8720469465
C        2.7806286178   -3.2620095569    0.4007779615
C       -0.4657813573   -1.9123995073   -0.8005690969
C       -2.0704844729   -0.0854255624   -0.2923920172
C       -2.1913572724    0.4195547037    1.1483141608
N        0.9259126979    2.2712829298    1.2444215359
N       -0.7053755804   -0.5706791050   -0.4712066123
O       -1.3866784194   -2.5618310757   -1.2979353571
O        2.5189820446   -4.0481929397   -0.6929947912
O       -1.2228424672    1.4338657771    1.4782492413
Br       4.3163019837   -3.4394934058    1.5188675925
H        3.4437466538    1.4154729593   -0.8080897878
H        1.7940346496   -0.2928235772   -1.5464425376
H        1.7327999962   -1.6007302409    1.3684741165
H        2.8544283285    3.0086559685    0.9557175545
H        0.8325525575   -4.0586552724   -2.0750239864
H       -2.8171815959   -0.8676665860   -0.4616688547
H       -2.2719920967    0.7282946022   -0.9966216959
H       -3.1970113395    0.8231050900    1.3008202006
H       -2.0664354434   -0.4236810848    1.8353365946
27   

C        2.4178629331    1.6201616627   -0.2759091955
C        1.5957086722    0.5608863097   -0.6369639755
C        1.8398095424   -2.0311717196    1.0672397904
C        1.9366602028    2.6071447120    0.5822494822
C        1.8319544537   -3.2759625070   -0.8033629504
C        1.0768531548   -2.3677677302   -0.1165150068
C        0.3025016766    0.5074063477   -0.1028301819
C       -0.1220250062    1.5791601751    0.7382131358
C        2.9972237032   -2.7530505898    0.9931166428
C       -0.2577527185   -1.8825736840   -0.5610110395
C       -2.0114791741   -0.1283524091   -0.4042277617
C       -2.2806963175    0.5207466693    0.9559756593
N        0.6937678152    2.5909949445    1.0733349656
N       -0.6080016892   -0.5310337899   -0.4270946161
O       -1.1085647162   -2.6669856154   -0.9798521902
O        3.0138859602   -3.5179142303   -0.1463984774
O       -1.4101703057    1.6339203756    1.2349628617
Br       4.4002389336   -2.7047510800    2.2849815488
H        3.4287915898    1.6938614351   -0.6576874712
H        1.9591125462   -0.1933758351   -1.3257396674
H        1.5596127776   -1.3432936529    1.8583874283
H        2.5915549687    3.4261951508    0.8563583887
H        1.5406994412   -3.7409717589   -1.7389837874
H       -2.6925254618   -0.9746516569   -0.5380273461
H       -2.2064655217    0.5873363908   -1.2094665092
H       -3.3194635222    0.8633843183    0.9875478314
H       -2.1566060233   -0.2303431098    1.7428074683
27   

C        2.4516102489    1.2269472375    0.3477017260
C        1.5720373318    0.2347690927   -0.0651345259
C        0.9878013763   -2.0970257031    2.0393590159
C        1.9573602874    2.3801779432    0.9542269206
C        1.4097770378   -3.4085873868    0.2666026006
C        0.5313179284   -2.4659790496    0.7164593656
C        0.2031568608    0.4185030408    0.1641536661
C       -0.2197470136    1.6452059164    0.7585089464
C        2.1062325701   -2.8436378323    2.2794220225
C       -0.6277457944   -1.9230713458   -0.0486464584
C       -2.0653442201    0.0354712218   -0.5756964067
C       -2.5120990137    0.9020491451    0.6042989374
N        0.6517294740    2.5882526240    1.1492710688
N       -0.7678293088   -0.5386674390   -0.2287230111
O       -1.5308834224   -2.6584041054   -0.4430041028
O        2.3829168129   -3.6514504789    1.2049266641
O       -1.5595752204    1.9278165839    0.9444149546
Br       3.1486170703   -2.7706607461    3.8755751638
H        3.5192029846    1.1199219775    0.1996148300
H        1.9531031163   -0.6496261872   -0.5620886628
H        0.5419237471   -1.3699394990    2.7101095144
H        2.6570368638    3.1442242773    1.2729027717
H        1.3527845945   -3.8948912818   -0.7010801121
H       -2.8255554921   -0.7272323216   -0.7708889125
H       -1.9714570568    0.6474434222   -1.4786486273
H       -3.4696432487    1.3713995407    0.3589348997
H       -2.6717753116    0.2629743475    1.4788201344
27   

C        2.4934895060    1.2183874420   -0.1360593620
C        1.5545661140    0.2843758613   -0.5542890531
C        1.2652671452   -2.4187194576    1.3542941092
C        2.1119895479    2.2426199892    0.7288448471
C        1.5458415046   -3.2071001642   -0.7267317654
C        0.6610800771   -2.5118927374    0.0432518535
C        0.2459973648    0.3919945445   -0.0703564970
C       -0.0677840628    1.4926069591    0.7824304652
C        2.4654925412   -3.0652533893    1.2695200535
C       -0.6336252736   -1.9108334344   -0.3984702757
C       -2.1095427140    0.0860021841   -0.4850251388
C       -2.3600593819    0.7331937460    0.8791529401
N        0.8589570250    2.3816941877    1.1722597974
N       -0.7792435681   -0.5156278097   -0.4399059841
O       -1.6230648122   -2.6072845595   -0.6105624752
O        2.6567772030   -3.5544352283    0.0017613417
O       -1.3566072342    1.7044684650    1.2349965271
Br       3.7112265897   -3.2545496897    2.7019853226
H        3.5201284328    1.1659030247   -0.4771922839
H        1.8422352216   -0.4947351890   -1.2494969418
H        0.8573707462   -1.9293274413    2.2325193842
H        2.8571542835    2.9620236013    1.0482935794
H        1.3991079255   -3.4454010329   -1.7743895591
H       -2.8978380158   -0.6437601422   -0.6942110292
H       -2.1476298822    0.8441003349   -1.2740404574
H       -3.3399558799    1.2200083120    0.8676954406
H       -2.3874840650   -0.0469635435    1.6468896336
27   

C        2.3742122198    1.0106747622    0.2920803047
C        1.5191975322   -0.0444866731    0.5825432639
C        1.8559347554   -3.4650506669    0.5832673750
C        1.8987091076    2.1103275275   -0.4195930175
C        1.3593169734   -2.8847797976   -1.5242594599
C        0.8600787442   -2.8361563108   -0.2572634838
C        0.1981276715    0.0214556039    0.1260964112
C       -0.2157833889    1.2020745800   -0.5625223520
C        2.8900180175   -3.8100841776   -0.2402613820
C       -0.5006478667   -2.3680094688    0.1542464646
C       -2.1201894949   -0.5190828813    0.5126475094
C       -2.4467226805    0.2890162646   -0.7446128400
N        0.6311564605    2.2078146337   -0.8310963410
N       -0.7493812306   -1.0047874402    0.3746105026
O       -1.4402620728   -3.1560445216    0.2176174318
O        2.6099445026   -3.4522758286   -1.5341796079
O       -1.5249907354    1.3729224655   -0.9719478258
Br       4.4942525783   -4.6776898081    0.3200344832
H        3.4069769729    0.9948965085    0.6181083196
H        1.8800192517   -0.8806625938    1.1682501314
H        1.7953669902   -3.6463634656    1.6511254702
H        2.5790323595    2.9248526927   -0.6399402491
H        0.8394744395   -2.5295721922   -2.4071176191
H       -2.1995455290    0.1175938705    1.3998878756
H       -2.8472733098   -1.3290417372    0.6272261277
H       -2.4335758871   -0.3771046794   -1.6133244263
H       -3.4591914652    0.6940968059   -0.6538671728
27   

C        2.3640860305    1.0448701163    0.2493009667
C        1.5163345479   -0.0099384076    0.5608948090
C        1.8408208377   -3.5912263236    0.5773943820
C        1.8794755559    2.1298611541   -0.4786094355
C        1.3704276319   -2.7278819763   -1.4382702664
C        0.8732864465   -2.8208125590   -0.1714222059
C        0.1919331128    0.0420693657    0.1093600864
C       -0.2307597020    1.2075534641   -0.5984979308
C        2.8581251451   -3.8750809654   -0.2894336481
C       -0.4637155455   -2.3542933068    0.3054128386
C       -2.1280737213   -0.5183271774    0.4965343234
C       -2.4493903513    0.2683926722   -0.7760669785
N        0.6099637486    2.2127512801   -0.8877784477
N       -0.7480139261   -0.9838417627    0.3872978987
O       -1.3606336980   -3.1623726954    0.5332638816
O        2.5947343251   -3.3436162401   -1.5263469940
O       -1.5415672519    1.3625872792   -1.0077885725
Br       4.4204053136   -4.8803367933    0.1454354515
H        3.3981570677    1.0402325030    0.5716750296
H        1.8854288051   -0.8363674899    1.1574270690
H        1.7704081546   -3.9031930835    1.6141119032
H        2.5543700560    2.9444612997   -0.7148471103
H        0.8674281486   -2.2400513908   -2.2658801347
H       -2.2331951426    0.1269819696    1.3747729011
H       -2.8429883217   -1.3400512318    0.6038722623
H       -2.4145675217   -0.4089089277   -1.6354590392
H       -3.4690111435    0.6592398750   -0.7047912756
27   

C        2.3411767252    1.1573240576    0.2379924515
C        1.5410753877    0.0701516254    0.5641011109
C        1.9141760846   -3.7086756198    0.5202840225
C        1.8076109512    2.2122534670   -0.5002007376
C        1.5425922255   -2.5238128568   -1.3466547309
C        0.9999725157   -2.7914229945   -0.1217265165
C        0.2141479915    0.0608030489    0.1165518487
C       -0.2613842961    1.1984983342   -0.6021550567
C        2.9465537178   -3.8990907092   -0.3540981533
C       -0.3251580783   -2.3569610362    0.4030609338
C       -2.0785917697   -0.5993993051    0.5181967765
C       -2.4360109098    0.1595032541   -0.7621261932
N        0.5345115657    2.2351594460   -0.9063936465
N       -0.6784770506   -1.0006714381    0.4135096588
O       -1.1619095309   -3.1917576508    0.7413747121
O        2.7439510271   -3.1709535242   -1.4988500052
O       -1.5791744410    1.2913073392   -1.0073348399
Br       4.4527901044   -5.0284221495   -0.0436081527
H        3.3753626333    1.2014518176    0.5571553156
H        1.9469042011   -0.7350754880    1.1671010723
H        1.7973549606   -4.1734981956    1.4937747136
H        2.4457029930    3.0527619116   -0.7477150847
H        1.0865964854   -1.8920005118   -2.1009767510
H       -2.2152785698    0.0476589955    1.3907732086
H       -2.7529884425   -1.4542535611    0.6297288610
H       -2.3710882042   -0.5242547512   -1.6146488808
H       -3.4724003477    0.5041234702   -0.6939616155
27   

C        2.3234810628    1.2304485116    0.2731014641
C        1.5415230715    0.1364713969    0.6206530824
C        1.8347784464   -3.8714459531    0.4977173261
C        1.7807262602    2.2482138168   -0.5100932482
C        1.6851612884   -2.3900706727   -1.1768883568
C        1.0395456683   -2.7889220987   -0.0376400848
C        0.2248535152    0.0837923709    0.1484196575
C       -0.2636639788    1.1860237832   -0.6145206471
C        2.9018893221   -4.0229643881   -0.3413639988
C       -0.2665460633   -2.3354370951    0.5099079826
C       -2.0557942146   -0.6123988185    0.5438515318
C       -2.4143382073    0.0956356443   -0.7655363493
N        0.5151964570    2.2289787176   -0.9399737766
N       -0.6470594965   -0.9872821798    0.4644852120
O       -1.0741326823   -3.1634821626    0.9297254437
O        2.8352098992   -3.1152174660   -1.3670612216
O       -1.5765748071    1.2348804363   -1.0427738211
Br       4.2847402648   -5.3213634900   -0.1349805403
H        3.3501805203    1.3090755780    0.6094529596
H        1.9504931853   -0.6430781755    1.2553282278
H        1.6167679104   -4.4633665285    1.3808555862
H        2.4046461846    3.0941392421   -0.7747235740
H        1.3358344512   -1.6142390722   -1.8493727330
H       -2.2147432736    0.0602891905    1.3929696899
H       -2.7127704027   -1.4778088491    0.6765769845
H       -2.3278459082   -0.6158883846   -1.5931178053
H       -3.4578517127    0.4219661964   -0.7194889248
27   

C        2.3248864931    1.2860464690    0.2623138640
C        1.5567043350    0.1861849425    0.6227847812
C        1.7187389466   -4.0226437937    0.3245397087
C        1.7737425673    2.2806071022   -0.5453168280
C        1.8085125264   -2.3033146436   -1.1065353859
C        1.0554591213   -2.7994676703   -0.0735383783
C        0.2471852769    0.1047678512    0.1369591788
C       -0.2534737980    1.1859150358   -0.6471447431
C        2.8147194935   -4.1567634553   -0.4786983906
C       -0.2168325830   -2.3180848574    0.5247686698
C       -2.0201933957   -0.6121421210    0.5472836157
C       -2.3923907382    0.0675176237   -0.7739290678
N        0.5124115776    2.2341740105   -0.9857254197
N       -0.6085445198   -0.9736462490    0.4641599151
O       -0.9953176843   -3.1315269204    1.0235448904
O        2.8931540377   -3.1067487741   -1.3560069485
O       -1.5654248078    1.2076845837   -1.0809697684
Br       4.0578753201   -5.6026147627   -0.4083815607
H        3.3469278265    1.3876435448    0.6066722329
H        1.9682770567   -0.5783885993    1.2742451288
H        1.3974458961   -4.7103614068    1.1005196661
H        2.3869432786    3.1308874320   -0.8208414922
H        1.5810023284   -1.4070044476   -1.6726258003
H       -2.1806718152    0.0746204727    1.3847884521
H       -2.6666991004   -1.4822330443    0.6998323103
H       -2.3056424508   -0.6599620578   -1.5875290052
H       -3.4382620579    0.3862327344   -0.7277795957
27   

C        2.2772111432    1.3652826494    0.3159031203
C        1.5272173612    0.2537264852    0.6803106854
C        1.5718500609   -4.1351309852    0.1215573858
C        1.7249280154    2.3253664359   -0.5326454024
C        1.9465048221   -2.2315432402   -0.9905979282
C        1.0577642164   -2.8005211823   -0.1117688077
C        0.2380857221    0.1259067395    0.1539206589
C       -0.2702859784    1.1769019605   -0.6645210560
C        2.7133341382   -4.2589938022   -0.6160975222
C       -0.1921616792   -2.3076855345    0.5259105968
C       -2.0133750215   -0.6239672105    0.5537588155
C       -2.3897113642    0.0175306707   -0.7859820065
N        0.4781409935    2.2363562207   -1.0069504965
N       -0.5967487187   -0.9661918280    0.4800041032
O       -0.9485438457   -3.1192320802    1.0621617301
O        2.9636365972   -3.0995327301   -1.3004094894
O       -1.5736580874    1.1576695293   -1.1244777783
Br       3.8064807939   -5.8209186490   -0.6964962519
H        3.2855165774    1.5028076806    0.6872281269
H        1.9349389447   -0.4876090738    1.3606377578
H        1.1278973983   -4.8964600088    0.7556289558
H        2.3241159841    3.1842371082   -0.8123345571
H        1.8658648361   -1.2408126062   -1.4214177454
H       -2.1847912522    0.0812938924    1.3735848928
H       -2.6477813710   -1.4989446027    0.7277598943
H       -2.2946747260   -0.7307702213   -1.5795205737
H       -3.4389104472    0.3264961753   -0.7496845280
27   

C        2.2431353156    1.4644290084    0.3598311469
C        1.5129640177    0.3467836740    0.7467104517
C        1.4453633337   -4.2049261584   -0.0256017202
C        1.6985903448    2.3636366749   -0.5583379811
C        2.1135462997   -2.2182404607   -0.7984640626
C        1.0918125494   -2.7991277640   -0.0861505554
C        0.2560221800    0.1496800641    0.1688508756
C       -0.2532370987    1.1463262025   -0.7137689591
C        2.6255306805   -4.3545378837   -0.6929039229
C       -0.1399917539   -2.2859837211    0.5757855766
C       -1.9806064175   -0.6278544234    0.5584720442
C       -2.3486880989   -0.0607962134   -0.8175219239
N        0.4757731458    2.2122359149   -1.0773018807
N       -0.5580474363   -0.9489686684    0.5161802102
O       -0.8783715200   -3.0868508506    1.1523681256
O        3.0528971429   -3.1464778086   -1.1726366174
O       -1.5414883159    1.0693387237   -1.2096776772
Br       3.5537485516   -6.0046746555   -0.9309334702
H        3.2295109751    1.6536974224    0.7656325404
H        1.9103532505   -0.3493835848    1.4788866864
H        0.8767814563   -4.9931285686    0.4585877394
H        2.2824744571    3.2270592106   -0.8558337763
H        2.1909714800   -1.1772906646   -1.0815769785
H       -2.1725090816    0.1151330835    1.3395684473
H       -2.6031267729   -1.5029584645    0.7706780521
H       -2.2370654651   -0.8487250335   -1.5693928611
H       -3.4016425464    0.2372974789   -0.8082505976
