22   
Generated by ForceBalance from scan.xyz: Frame 1 of 24
C        1.5028117785   -0.5863298835   -0.6601189541
C        0.5777760336    0.3150910573   -0.1392635693
C        3.0958843041    0.0407956043    1.0546878882
C        2.7712171857   -0.7194547985   -0.0774498218
C        0.9194949018    1.0730654857    0.9784264497
C        2.1688939964    0.9385740981    1.5861292630
C        3.7191339673   -1.7122871554   -0.6939877585
C        7.4087713334   -2.2105439094   -0.3390246906
C        6.0685388428   -2.3731361144   -1.0510229141
N        5.0504218479   -1.5210138374   -0.4364800171
O        3.3060533157   -2.6487496150   -1.3794237520
F        0.0186138804    1.9402540828    1.4790242616
Br       2.5890884432    1.9617861362    3.1390818746
H        1.2587693798   -1.2024322757   -1.5191856261
H       -0.4073557290    0.4421312200   -0.5779134079
H        4.0492212393   -0.0820710981    1.5583455338
H        7.7738396394   -1.1781065011   -0.3991416955
H        7.3283472087   -2.4853940721    0.7174370571
H        8.1625969824   -2.8524688056   -0.8043956499
H        5.7120954446   -3.4032242255   -0.9875027031
H        6.1660366570   -2.1373780664   -2.1189942351
H        5.3467132626   -0.6089104376   -0.1136188475
22   
Generated by ForceBalance from scan.xyz: Frame 2 of 24
C        1.4504020302   -0.6283755732   -0.6059973340
C        0.5098242086    0.2499734197   -0.0735870732
C        3.0726285361    0.0935664313    1.0401513219
C        2.7416886540   -0.7031494210   -0.0646680171
C        0.8590922207    1.0441502596    1.0163022512
C        2.1314650267    0.9685055716    1.5849989410
C        3.7048887182   -1.6752491258   -0.6920955538
C        7.3355477308   -2.2571133586   -0.2317438965
C        6.0804444945   -2.2378364301   -1.1020485365
N        5.0348121583   -1.4132694737   -0.4989904367
O        3.3011414154   -2.6487009995   -1.3300597560
F       -0.0567291503    1.8886932932    1.5284155419
Br       2.5639656910    2.0392662428    3.1023134607
H        1.2008831682   -1.2718237425   -1.4430884124
H       -0.4930228865    0.3314051979   -0.4818993478
H        4.0454816301    0.0169175876    1.5148519946
H        7.7510473245   -1.2505335759   -0.1022220260
H        7.1175673629   -2.6675605979    0.7589728266
H        8.1092117386   -2.8739206093   -0.6995152186
H        5.6640158723   -3.2394693815   -1.2178724910
H        6.3171660997   -1.8708112382   -2.1099044613
H        5.2981697714   -0.4884226873   -0.1845894685
22   
Generated by ForceBalance from scan.xyz: Frame 3 of 24
C        1.3952080912   -0.6836063482   -0.5584553315
C        0.4263589038    0.1631321508   -0.0254808886
C        3.0197572978    0.1601716383    1.0270083168
C        2.7011963687   -0.6810019613   -0.0481358026
C        0.7616252681    1.0027526053    1.0342423040
C        2.0496328097    1.0029627309    1.5718806961
C        3.6944128710   -1.6235836914   -0.6747622818
C        7.2404371081   -2.2833888065   -0.1319513645
C        6.0950762967   -2.0742468640   -1.1230799196
N        5.0136567889   -1.2842463842   -0.5385647852
O        3.3191943417   -2.6366892743   -1.2668025248
F       -0.1817161221    1.8160173940    1.5472070247
Br       2.4654238953    2.1345894412    3.0489362393
H        1.1570867387   -1.3609833570   -1.3717480661
H       -0.5886114565    0.1852146382   -0.4106374784
H        4.0059512986    0.1437899377    1.4797808842
H        7.6741863285   -1.3292019707    0.1893590255
H        6.8901652102   -2.8162277907    0.7572542344
H        8.0391084123   -2.8712210552   -0.5959632385
H        5.6551167556   -3.0259619510   -1.4234465317
H        6.4615539069   -1.5832927844   -2.0341791532
H        5.2369600848   -0.3499507986   -0.2223950376
22   
Generated by ForceBalance from scan.xyz: Frame 4 of 24
C        4.1170453051    1.3626175350   -1.9126021927
C        3.4766815815    2.5764937660   -1.6758693212
C        4.2504244843    0.9593027391    0.4709010654
C        4.5225791624    0.5522641088   -0.8425525449
C        3.2248172324    2.9737292442   -0.3647039570
C        3.5997418304    2.1703024539    0.7131047115
C        5.2087245071   -0.7462392087   -1.1761143243
C        6.3744412866   -3.5747502136    0.6485927699
C        6.7662287447   -2.5095297822   -0.3780034027
N        6.0136295693   -1.2694723445   -0.2008293656
O        5.0416860034   -1.2867115871   -2.2706937867
F        2.6010442291    4.1472678683   -0.1450667730
Br       3.2071862719    2.7224313738    2.4952203493
H        4.3090946505    1.0209906800   -2.9242008012
H        3.1621490387    3.2244615620   -2.4883644855
H        4.5004873667    0.3287432366    1.3181079178
H        6.5612798102   -3.2326587518    1.6728374440
H        5.3125236975   -3.8224322705    0.5590488353
H        6.9577522946   -4.4878338715    0.4887296471
H        6.5610622074   -2.8529753444   -1.3927048988
H        7.8390427867   -2.2902530365   -0.3130440737
H        6.2360318671   -0.6940430045    0.5998410793
22   
Generated by ForceBalance from scan.xyz: Frame 5 of 24
C        4.0733400845    1.3029923842   -1.8719101959
C        3.4159331890    2.5081989338   -1.6380764683
C        4.3349476405    0.9708029936    0.5117981288
C        4.5511435442    0.5328798049   -0.8018956643
C        3.2194114036    2.9364319761   -0.3272303671
C        3.6671350297    2.1730161159    0.7517678172
C        5.2490885358   -0.7595634358   -1.1350997571
C        6.2836241627   -3.6034211664    0.5300070935
C        6.8486949846   -2.4907610329   -0.3573675635
N        6.1289346128   -1.2290686063   -0.2004520730
O        5.0375109345   -1.3360648460   -2.2037797361
F        2.5782385313    4.1007938772   -0.1086732228
Br       3.3511862823    2.7675764427    2.5352005501
H        4.2231472356    0.9364383080   -2.8818909410
H        3.0460608396    3.1250311140   -2.4515123347
H        4.6423528835    0.3730281494    1.3640795452
H        6.3322762727   -3.3318009095    1.5904566450
H        5.2389312426   -3.8033664994    0.2743660770
H        6.8561275401   -4.5270344464    0.3919449359
H        6.7715015278   -2.7649140844   -1.4105594577
H        7.9072634812   -2.3180044913   -0.1329063543
H        6.3203453793   -0.6685944222    0.6179746839
22   
Generated by ForceBalance from scan.xyz: Frame 6 of 24
C        4.0070944003    1.1793503052   -2.0755905291
C        3.3466360691    2.4025996261   -1.9934781922
C        4.3345179594    1.1818007969    0.3234365491
C        4.5186502295    0.5669501570   -0.9225583075
C        3.1829546908    3.0073554104   -0.7493859862
C        3.6656188106    2.4036471108    0.4126469699
C        5.2204849526   -0.7539167785   -1.0921490900
C        6.1276814529   -3.5228506078    0.4962954811
C        6.8601360188   -2.3572356791   -0.1738534091
N        6.1035876008   -1.1061247552   -0.1108174268
O        5.0061845187   -1.4669884059   -2.0746821015
F        2.5391973181    4.1883011577   -0.6767907813
Br       3.3968875479    3.2403817621    2.1041468568
H        4.1341292659    0.6770286305   -3.0287110573
H        2.9501189064    2.8992158890   -2.8738956110
H        4.6687196831    0.7082517668    1.2410597783
H        5.9472247880   -3.3198607290    1.5571670142
H        5.1651190576   -3.6947996677    0.0070862304
H        6.7220133340   -4.4398182926    0.4184587198
H        7.0389673166   -2.5817534044   -1.2279204827
H        7.8298281482   -2.1840652681    0.3032130393
H        6.3470092959   -0.4297237868    0.5981732087
22   
Generated by ForceBalance from scan.xyz: Frame 7 of 24
C        3.9497790965    1.1372873166   -1.4522736922
C        3.2832094114    2.3199935988   -1.1423157417
C        4.5490463257    0.8539364598    0.8781538960
C        4.5986650411    0.4042264250   -0.4484084605
C        3.2530908208    2.7618809582    0.1783963513
C        3.8756572900    2.0349192284    1.1941479092
C        5.2985718824   -0.8634875226   -0.8586928350
C        6.2311351331   -3.8028462444   -0.0437892539
C        7.0386390258   -2.5348010638   -0.3321837337
N        6.2941089794   -1.3083957259   -0.0367704936
O        4.9881859547   -1.4562035934   -1.8943813109
F        2.6028387053    3.9048243568    0.4701213072
Br       3.7915315775    2.6493338211    2.9965381170
H        3.9759760621    0.7607345839   -2.4694170543
H        2.7804807625    2.9092936258   -1.9032031201
H        4.9936427327    0.2804036002    1.6852353943
H        5.9362252937   -3.8486449579    1.0095957741
H        5.3309909323   -3.8276651537   -0.6620143338
H        6.8318650128   -4.6896970108   -0.2729493643
H        7.3325146364   -2.5138276096   -1.3860467408
H        7.9515222262   -2.5119507246    0.2701333595
H        6.6151477322   -0.7146315353    0.7138025795
22   
Generated by ForceBalance from scan.xyz: Frame 8 of 24
C        3.9004073217    1.0911920946   -1.3966473838
C        3.2171973165    2.2622188319   -1.0789046893
C        4.5946006865    0.8560564117    0.9105056504
C        4.6053811703    0.3868500727   -0.4100995912
C        3.2271500722    2.7226106590    0.2357818134
C        3.9058126054    2.0255614264    1.2362968784
C        5.3175721096   -0.8713270946   -0.8324330614
C        6.1846616077   -3.7688241532   -0.1466306709
C        7.0783176010   -2.5317211531   -0.2681289640
N        6.3660506825   -1.2680121547   -0.0542935390
O        4.9763378299   -1.4832391299   -1.8472915483
F        2.5614315735    3.8541652795    0.5367404581
Br       3.8781346374    2.6644655369    3.0319341686
H        3.8970533767    0.7006423921   -2.4087739205
H        2.6718984893    2.8280219554   -1.8282624440
H        5.0829183640    0.3067554930    1.7091975661
H        5.7229934692   -3.8235138395    0.8450539011
H        5.3971330831   -3.7481138006   -0.9008870329
H        6.7867583781   -4.6716996270   -0.2950359423
H        7.5377491041   -2.5102632691   -1.2627397314
H        7.8876298397   -2.5652114954    0.4664266992
H        6.6585092100   -0.6763465319    0.7092888215
22   
Generated by ForceBalance from scan.xyz: Frame 9 of 24
C        3.7501681187    1.0471212921   -1.0970108773
C        3.0168101841    2.1575122193   -0.6868938603
C        4.5020757920    0.6894688038    1.1758878948
C        4.5092372820    0.3132885111   -0.1741239667
C        3.0308867368    2.5264465655    0.6563759264
C        3.7632915548    1.7975589065    1.5942023186
C        5.2710571920   -0.8788605430   -0.6946975859
C        6.2711227741   -3.7375120358   -0.3534453142
C        7.1341371595   -2.4834365670   -0.1948546662
N        6.3777383239   -1.2421199897    0.0174349216
O        4.9169883168   -1.4498278678   -1.7283199379
F        2.3165321463    3.5996254644    1.0465174535
Br       3.7416320333    2.3093776838    3.4302695518
H        3.7443176647    0.7271384697   -2.1336133054
H        2.4291725614    2.7452362513   -1.3856822225
H        5.0328433076    0.1113928539    1.9258256962
H        5.6065323961   -3.8681698535    0.5074037107
H        5.6633622381   -3.6834916897   -1.2558657751
H        6.9250007522   -4.6139374756   -0.4164227219
H        7.7665709805   -2.3671715170   -1.0837635978
H        7.8026207350   -2.5866304689    0.6644976821
H        6.6387678916   -0.6720004435    0.8086268963
22   
Generated by ForceBalance from scan.xyz: Frame 10 of 24
C        3.8098498914    1.0206913246   -1.2339149998
C        3.1828078495    2.2218516440   -0.9127643419
C        4.7281989345    0.8884879290    1.0017787344
C        4.5980319655    0.3518864275   -0.2863604664
C        3.3335327999    2.7492208748    0.3678122898
C        4.0973230899    2.0893936560    1.3313178320
C        5.2395870728   -0.9470430786   -0.7107539961
C        6.2600819458   -3.7914024901   -0.4512638837
C        7.1063960289   -2.5630719799   -0.1147405811
N        6.3700730998   -1.2936642637   -0.0263626668
O        4.7609027081   -1.6053885541   -1.6355370273
F        2.7215206708    3.9098527078    0.6724241503
Br       4.2645736243    2.8213955269    3.0836027674
H        3.6967104517    0.5786763330   -2.2181727737
H        2.5747700301    2.7606447108   -1.6332239628
H        5.2830709334    0.3676056991    1.7756785753
H        5.4214828611   -3.8956311976    0.2443144062
H        5.8576317775   -3.7395543203   -1.4612227632
H        6.8932715374   -4.6804598135   -0.3592649753
H        7.9097344150   -2.4638198222   -0.8573844078
H        7.5872635716   -2.7040779121    0.8588217002
H        6.7556104907   -0.6015622751    0.6002496198
22   
Generated by ForceBalance from scan.xyz: Frame 11 of 24
C        3.2360330278    0.7260747921   -0.5786102176
C        2.3984251393    1.7156682472   -0.0703743073
C        4.0446992155    0.2481103939    1.6517945777
C        4.0758576229   -0.0050281023    0.2737850195
C        2.3895850523    1.9646620227    1.3002665988
C        3.2024228057    1.2346114126    2.1680404286
C        4.9489587146   -1.0651913002   -0.3570889518
C        6.6430420066   -3.5268968645   -0.8871147094
C        7.0765107737   -2.4219941695    0.0753120685
N        6.0889650961   -1.3627363987    0.3356256438
O        4.6252827341   -1.5739386813   -1.4306817254
F        1.5739969437    2.9207328238    1.7854441981
Br       3.1511156136    1.5792812364    4.0424035398
H        3.2503645009    0.4990089738   -1.6393445616
H        1.7466161850    2.2994856194   -0.7133302573
H        4.6380915534   -0.3377619578    2.3467154339
H        5.7168852161   -4.0049920330   -0.5583362085
H        6.4842014812   -3.1498896851   -1.8961189853
H        7.4345932871   -4.2841094738   -0.9061872486
H        7.9959086351   -1.9556451006   -0.3037919272
H        7.3228979609   -2.8652152455    1.0473366989
H        6.2999556338   -0.7716081446    1.1275922066
22   
Generated by ForceBalance from scan.xyz: Frame 12 of 24
C        2.4636741980   -0.2359121814   -0.3339225882
C        1.3428148691    0.3450724799    0.2539989697
C        3.0699655004   -1.2380007013    1.7836027469
C        3.3441458204   -1.0183261892    0.4268777618
C        1.0921691406    0.1283929084    1.6070391683
C        1.9440027198   -0.6642383430    2.3769632812
C        4.5327042234   -1.6179096810   -0.2907772792
C        7.0747740995   -2.9639548952   -1.2839181040
C        6.8937538505   -2.5203674700    0.1667266967
N        5.6114543772   -1.8821036055    0.5060949078
O        4.4844582356   -1.8132866185   -1.5051619382
F        0.0036547398    0.6895398882    2.1683645177
Br       1.5626208235   -0.9648004119    4.2205745147
H        2.6723980536   -0.0993559187   -1.3897076349
H        0.6532867181    0.9617180617   -0.3146838662
H        3.6968117891   -1.8851469818    2.3891071419
H        6.3309639878   -3.7055515177   -1.5787524616
H        7.0029802220   -2.1263052493   -1.9779089370
H        8.0708296682   -3.4122410841   -1.3708530478
H        7.6924912224   -1.8143783953    0.4276793697
H        7.0116819027   -3.3901352123    0.8259497753
H        5.5456558211   -1.5638176790    1.4630439205
22   
Generated by ForceBalance from scan.xyz: Frame 13 of 24
C        2.2980834538   -0.5522448097   -0.3207502667
C        1.1672892236    0.0207727638    0.2561883972
C        2.9168751658   -1.5104849773    1.8129866492
C        3.1901964146   -1.3080982649    0.4533039880
C        0.9170947614   -0.1779511865    1.6119269593
C        1.7803514939   -0.9455798354    2.3944710229
C        4.3909059122   -1.8962303189   -0.2533055044
C        7.1633202444   -2.5745743299   -1.3090949433
C        6.7987759877   -2.6558661567    0.1731659024
N        5.4630621184   -2.1632174565    0.5518877211
O        4.3550636639   -2.1001552694   -1.4667322154
F       -0.1809104765    0.3749131625    2.1631407946
Br       1.3994497094   -1.2253301878    4.2411410317
H        2.5060966882   -0.4295322618   -1.3783408442
H        0.4692938860    0.6171943119   -0.3236067853
H        3.5519478021   -2.1376412896    2.4307717184
H        6.5314335236   -3.2162858726   -1.9210756235
H        7.0736050523   -1.5544231839   -1.6903832176
H        8.2064588658   -2.8933018069   -1.4135975370
H        7.5201431525   -2.0713839423    0.7550122067
H        6.8919434354   -3.6976119947    0.5084096709
H        5.3923399407   -1.8329210484    1.5039901286
22   
Generated by ForceBalance from scan.xyz: Frame 14 of 24
C        2.2393823678   -0.7369268524   -0.3203522144
C        1.1306503258   -0.1098356924    0.2431183233
C        2.8987979662   -1.5556553249    1.8596424019
C        3.1404844741   -1.4501817232    0.4829877326
C        0.9121935610   -0.2121503190    1.6149496818
C        1.7841458677   -0.9372091972    2.4282415168
C        4.3176490243   -2.0986263553   -0.2050294170
C        7.1594975968   -2.2781895737   -1.2503910950
C        6.7337454791   -2.7791237833    0.1318343793
N        5.3979635946   -2.3599441869    0.5942496629
O        4.2637409960   -2.3778604585   -1.4029208354
F       -0.1643601695    0.3931474536    2.1529149941
Br       1.4437211018   -1.0879113665    4.2975953856
H        2.4228824408   -0.6892655946   -1.3885185478
H        0.4257832968    0.4554278241   -0.3591356762
H        3.5423843354   -2.1480136827    2.5021965373
H        6.5468766071   -2.7082700258   -2.0404420741
H        7.0860935607   -1.1877709506   -1.3173224921
H        8.2060879762   -2.5598110642   -1.4107807754
H        7.4389605267   -2.4254357621    0.8895977508
H        6.7799704077   -3.8753288457    0.1441813911
H        5.3811691359   -1.9228205371    1.5049511776
22   
Generated by ForceBalance from scan.xyz: Frame 15 of 24
C        2.1877320837   -0.8639887008   -0.3119528790
C        1.0895122540   -0.2113571356    0.2429512674
C        2.9057959352   -1.5553113228    1.8949963681
C        3.1114624442   -1.5267204187    0.5087184192
C        0.9061793798   -0.2371432958    1.6235276939
C        1.8020316746   -0.9107995236    2.4552396140
C        4.2759705252   -2.2061107555   -0.1645877474
C        7.1544928365   -2.0885176564   -1.1526098219
C        6.6773836412   -2.8566976125    0.0838581024
N        5.3728276236   -2.4388300258    0.6242217084
O        4.2105035567   -2.5470563639   -1.3461562726
F       -0.1601277378    0.3929028468    2.1530312967
Br       1.5075762765   -0.9575142320    4.3377204856
H        2.3454247077   -0.8749464748   -1.3852833342
H        0.3664631848    0.3158915963   -0.3720726832
H        3.5706203628   -2.1074162234    2.5514089241
H        6.4870663291   -2.2535634964   -1.9974235083
H        7.2067969717   -1.0122176503   -0.9532867533
H        8.1595074724   -2.4325133563   -1.4203747862
H        7.3938740430   -2.7542135169    0.9033247291
H        6.6195072617   -3.9237043550   -0.1580047485
H        5.4122222795   -1.9091563561    1.4847196878
22   
Generated by ForceBalance from scan.xyz: Frame 16 of 24
C        2.1307814359   -0.9531109925   -0.2958865467
C        1.0348021891   -0.2964617515    0.2586752222
C        2.9196552501   -1.5330178843    1.9193960845
C        3.0877623421   -1.5624265150    0.5281022997
C        0.8889837255   -0.2642240346    1.6436186766
C        1.8191406708   -0.8836098219    2.4800753882
C        4.2481944690   -2.2479725245   -0.1416653873
C        7.1942235833   -1.9811209673   -1.0514255332
C        6.6281730113   -2.9016019217    0.0347116669
N        5.3686008117   -2.4336141927    0.6268061136
O        4.1707152884   -2.6373332827   -1.3078157320
F       -0.1747349386    0.3696337541    2.1735809912
Br       1.5747901853   -0.8505947970    4.3699452482
H        2.2615100363   -1.0078777004   -1.3715104391
H        0.2858852072    0.1900095851   -0.3590021754
H        3.6131784706   -2.0434192398    2.5797327049
H        6.4962147358   -1.8998684478   -1.8857734903
H        7.3909912614   -0.9781426415   -0.6560647756
H        8.1394583053   -2.3891198104   -1.4256224017
H        7.3385023641   -3.0224937091    0.8574068767
H        6.4458302643   -3.8941004208   -0.3872889297
H        5.4518888847   -1.8543265332    1.4519823326
22   
Generated by ForceBalance from scan.xyz: Frame 17 of 24
C        2.0463071545   -1.0240534189   -0.2660105521
C        0.9575604450   -0.3697240528    0.3052644627
C        2.9235538611   -1.5126218681    1.9383251215
C        3.0431557585   -1.5867945338    0.5437398082
C        0.8596889948   -0.2922051575    1.6926707757
C        1.8309824085   -0.8644636160    2.5157960211
C        4.1936232390   -2.2728010278   -0.1409670694
C        7.2589814334   -1.9086520504   -0.9516834846
C        6.5696037062   -2.9165578925   -0.0268381641
N        5.3471476375   -2.3964215005    0.5896104581
O        4.0865732296   -2.7082443501   -1.2884577124
F       -0.1971988409    0.3397011640    2.2384261079
Br       1.6532226200   -0.7686608457    4.4109537352
H        2.1404257925   -1.1129955946   -1.3431853195
H        0.1777819557    0.0811086310   -0.3011337441
H        3.6508474008   -1.9867150349    2.5892932029
H        6.5903333209   -1.6249880848   -1.7679102146
H        7.5497433877   -1.0043351885   -0.4053187257
H        8.1640669408   -2.3490315200   -1.3838664681
H        7.2378550260   -3.2275131299    0.7820770437
H        6.2912128625   -3.8097308107   -0.5900020226
H        5.4612958525   -1.7846641383    1.3872594875
22   
Generated by ForceBalance from scan.xyz: Frame 18 of 24
C        1.9864586593   -1.0776356382   -0.3082495502
C        0.9098018979   -0.4052840963    0.2648065050
C        2.9620263202   -1.4083573353    1.8827422692
C        3.0265745316   -1.5714861364    0.4921267835
C        0.8675326944   -0.2386824600    1.6470888818
C        1.8827609544   -0.7404067627    2.4629860933
C        4.1589106566   -2.2818875260   -0.1999900856
C        7.3953419853   -1.9141969046   -0.8573897578
C        6.5376508030   -2.9443451567   -0.1165121810
N        5.3412122031   -2.3592116313    0.4865967515
O        4.0114887073   -2.7657695995   -1.3235499687
F       -0.1773892534    0.4107178445    2.1953570745
Br       1.7832806051   -0.5212767314    4.3537184007
H        2.0386622614   -1.2345942567   -1.3804341943
H        0.0975066038   -0.0077234706   -0.3361342411
H        3.7219491942   -1.8271539663    2.5343846279
H        6.8229868991   -1.4530290976   -1.6673946310
H        7.7384302420   -1.1237785126   -0.1806262715
H        8.2786513300   -2.3954702890   -1.2908934718
H        7.1156327394   -3.4265941159    0.6793835210
H        6.1979899359   -3.7214527733   -0.8023193287
H        5.4725425624   -1.7496092366    1.2825361212
22   
Generated by ForceBalance from scan.xyz: Frame 19 of 24
C        1.9518731217   -0.4452122261   -0.9127725653
C        1.0098418679    0.4876795218   -0.4862856960
C        3.0023012620   -0.3987981908    1.2682564281
C        2.9625419609   -0.8847942947   -0.0458847789
C        1.0715638560    0.9718389634    0.8183255200
C        2.0573834800    0.5317457627    1.7028963010
C        3.9461448835   -1.8917827661   -0.5805348502
C        7.3555583579   -2.0968099711   -1.0774258989
C        6.2244681749   -2.8485934784   -0.3706037831
N        5.1501859684   -1.9603413824    0.0665890936
O        3.6630768665   -2.6019311297   -1.5469796479
F        0.1560202024    1.8721453093    1.2250357749
Br       2.0998979306    1.1925163295    3.4904053107
H        1.9188446133   -0.8510310611   -1.9183126581
H        0.2234484914    0.8481160208   -1.1425486378
H        3.7369062234   -0.7601610089    1.9806144867
H        6.9784016119   -1.5819484155   -1.9660836408
H        7.8144126666   -1.3523338055   -0.4166167975
H        8.1390662433   -2.7952489601   -1.3900115678
H        6.6104079785   -3.3866283458    0.5031662147
H        5.7695208859   -3.5795481980   -1.0399134622
H        5.3870234952   -1.2274837794    0.7215759992
22   
Generated by ForceBalance from scan.xyz: Frame 20 of 24
C        1.8987792692   -0.2066493019   -1.0666841615
C        1.0193280535    0.8006762553   -0.6779176425
C        3.0870308713    0.0045618603    1.0318087089
C        2.9467516208   -0.6031494675   -0.2234089037
C        1.1805267027    1.4040590739    0.5671654738
C        2.2045823653    1.0100646778    1.4295589070
C        3.8544517653   -1.6995294282   -0.7168573914
C        7.3755800713   -2.1197379405   -1.0361922154
C        6.0908221952   -2.7633891603   -0.5109616323
N        5.0909981560   -1.7665558549   -0.1369376512
O        3.4851397932   -2.4739814017   -1.6015791200
F        0.3245047087    2.3754333829    0.9384684426
Br       2.3834957226    1.8345384250    3.1390495366
H        1.7878035179   -0.7053228250   -2.0236676924
H        0.2059076603    1.1286427182   -1.3180857664
H        3.8516369776   -0.3147623855    1.7326635285
H        7.1723020344   -1.5212215235   -1.9293992549
H        7.8345093538   -1.4680508504   -0.2833227258
H        8.1070218666   -2.8918641759   -1.2962712278
H        6.3107531254   -3.3970272982    0.3574494272
H        5.6288057418   -3.3932797038   -1.2720535482
H        5.3787359483   -1.0227775785    0.4839438338
22   
Generated by ForceBalance from scan.xyz: Frame 21 of 24
C        1.7931280546   -0.3470848977   -0.9169303037
C        0.8983303884    0.6231057587   -0.4725702378
C        3.0841435599   -0.0996131675    1.1150740220
C        2.9004250373   -0.7061933953   -0.1350432081
C        1.1023929355    1.2258790978    0.7665662943
C        2.1861766579    0.8675400553    1.5693350848
C        3.8213621952   -1.7649505382   -0.6836962765
C        7.4481903631   -2.0747696432   -0.8722666166
C        6.1020463516   -2.7489080730   -0.6088675901
N        5.0930164106   -1.7813649049   -0.1839016019
O        3.4328781615   -2.5530269780   -1.5480709432
F        0.2300764280    2.1603492907    1.1910615161
Br       2.4244319028    1.6857257615    3.2747666781
H        1.6488145703   -0.8450657123   -1.8698431036
H        0.0390622586    0.9222076589   -1.0651978144
H        3.8979402085   -0.3917202897    1.7709988355
H        7.3629003501   -1.3302397185   -1.6699376704
H        7.8298841457   -1.5742469745    0.0257154622
H        8.1907399540   -2.8200720764   -1.1740005533
H        6.2110510773   -3.5287513494    0.1561942593
H        5.7168460147   -3.2288278279   -1.5098461177
H        5.3830203452   -1.0439174746    0.4432167790
22   
Generated by ForceBalance from scan.xyz: Frame 22 of 24
C        1.6745810293   -0.3889521436   -0.8241884837
C        0.7750626544    0.5570753120   -0.3391210272
C        3.0623958457   -0.0920337018    1.1368326583
C        2.8311994569   -0.7104432793   -0.0994838948
C        1.0258048837    1.1721551543    0.8853209105
C        2.1597942951    0.8502094768    1.6323312201
C        3.7535609529   -1.7447439303   -0.6894398208
C        7.4446591438   -2.0357209368   -0.7294602020
C        6.0532782512   -2.6641765110   -0.7483356334
N        5.0482843485   -1.7229030704   -0.2561289124
O        3.3481397521   -2.5531080902   -1.5270667491
F        0.1493889584    2.0828551873    1.3510913455
Br       2.4590429097    1.6826443585    3.3211195776
H        1.4960659835   -0.8969909990   -1.7659697331
H       -0.1222914606    0.8272763585   -0.8875768238
H        3.9178045712   -0.3567387954    1.7500876761
H        7.4864809864   -1.1528896718   -1.3756657010
H        7.7373030103   -1.7359608410    0.2840042846
H        8.1874484202   -2.7554138597   -1.0860122085
H        6.0370835141   -3.5760807551   -0.1379710598
H        5.7637692664   -2.9526892249   -1.7612320961
H        5.3576253103   -0.9688602314    0.3409954833
22   
Generated by ForceBalance from scan.xyz: Frame 23 of 24
C        1.6340632429   -0.4990377134   -0.7836259660
C        0.7335822474    0.4508558829   -0.3077855096
C        3.1116532019   -0.0465071387    1.0810938470
C        2.8348147571   -0.7445729203   -0.1024781741
C        1.0282827867    1.1461892909    0.8627470928
C        2.2082983256    0.9001373744    1.5664218966
C        3.7592180614   -1.7844700997   -0.6761103179
C        7.4775748899   -2.1221675297   -0.5688017632
C        6.0671792442   -2.6238327339   -0.8638142470
N        5.0693578330   -1.7172419190   -0.2916169932
O        3.3458923903   -2.6521504345   -1.4473886952
F        0.1504315641    2.0602875240    1.3191153438
Br       2.5672612360    1.8403821054    3.1855113778
H        1.4228743379   -1.0673455004   -1.6833564455
H       -0.1984241397    0.6635366225   -0.8226986652
H        4.0054382244   -0.2538439473    1.6605859433
H        7.6456348639   -1.1308831319   -1.0048467598
H        7.6645802207   -2.0627203253    0.5092989581
H        8.2165406719   -2.8046998550   -0.9978889607
H        5.9172601562   -3.6254756603   -0.4470104384
H        5.8974096157   -2.7026003917   -1.9425659354
H        5.4043860359   -0.8679543374    0.1425266599
22   
Generated by ForceBalance from scan.xyz: Frame 24 of 24
C        1.5616406343   -0.5428456207   -0.7181287867
C        0.6490661187    0.3839362707   -0.2202784830
C        3.1017306199   -0.0066421821    1.0731857042
C        2.7981531946   -0.7347540517   -0.0855507226
C        0.9711569230    1.1088869744    0.9248446644
C        2.1876189034    0.9169946093    1.5819629573
C        3.7344268915   -1.7515485592   -0.6794577699
C        7.4536014043   -2.1592352249   -0.4495117469
C        6.0597236483   -2.4979319316   -0.9689726603
N        5.0585017509   -1.6227713571   -0.3561160599
O        3.3211784167   -2.6558635478   -1.4067673754
F        0.0826088848    2.0007819937    1.4035264626
Br       2.5802570082    1.8974523103    3.1693244672
H        1.3319156327   -1.1342543228   -1.5982442519
H       -0.3110465469    0.5557681866   -0.6974921273
H        4.0272900013   -0.1744650054    1.6141998274
H        7.7327457380   -1.1279312133   -0.6963306102
H        7.5131866763   -2.2821358423    0.6369866059
H        8.1960279669   -2.8195085558   -0.9067391749
H        5.7955184259   -3.5320818783   -0.7325064517
H        6.0171460033   -2.4040134071   -2.0610315257
H        5.3793471531   -0.7281514415   -0.0091148039
