30   

C        7.4088334641   -5.7624291309    4.4739046734
C        8.5463306108   -9.0768768279    2.0728259543
C        8.9055942981   -8.8681497810    0.7438550666
C        7.5880291641   -8.2565244299    2.6721415402
C        5.8674911694   -6.0692264094    7.1904894086
C        8.3059561429   -7.8359488076    0.0215518564
C        6.7016481483   -6.2892335163    8.2906223335
C        7.2580194696   -3.9501659799    8.3286594839
C        6.9673931176   -7.2087361066    1.9595003938
C        5.7282987728   -4.7840184049    6.6407242105
C        7.4066579006   -5.2309868781    8.8679060505
C        7.3428906375   -7.0017636880    0.6060949590
C        6.4245819622   -3.7101110949    7.2292096873
C        6.1084805353   -5.8316144251    3.8837436596
C        5.9329487567   -6.3757122745    2.6157510687
N        8.4760200432   -5.7347804540    4.9420737581
N        4.8867111550   -4.5577001784    5.5587935258
N        4.9859543764   -5.1566370963    4.4170156696
O        4.7966623889   -6.1701124576    1.9578735073
Cl       8.4517073212   -5.5007366372   10.2400785757
Cl       6.6893550040   -5.6929295756   -0.3627974591
Cl       6.2833113156   -2.0819024054    6.5956099871
H        9.0080449145   -9.8762506247    2.6418434822
H        9.6501209504   -9.5011382872    0.2734133540
H        7.3142664056   -8.4490850414    3.7035007972
H        5.3225042360   -6.8979633457    6.7536337943
H        8.5928676516   -7.6655520566   -1.0096976022
H        6.8069708018   -7.2864273960    8.7016265565
H        7.8023014593   -3.1232309119    8.7680955194
H        4.2291415962   -5.5737085201    2.4801113150
30   

C        7.4340434616   -5.6053752183    4.3806631357
C        8.5202891716   -9.0843911380    2.1411753588
C        8.8646620559   -8.9512774828    0.7992767281
C        7.5762171570   -8.2245769311    2.7062583694
C        6.0074258596   -6.1714123324    7.1478853774
C        8.2653370884   -7.9540688705    0.0300687435
C        6.8706119062   -6.3746098902    8.2282937769
C        7.2419009443   -4.0030726996    8.3698263003
C        6.9519622328   -7.2116235172    1.9467949356
C        5.7574062311   -4.8775081565    6.6620410224
C        7.4971709872   -5.2913373141    8.8479293728
C        7.3162379132   -7.0798012549    0.5781173971
C        6.3765911907   -3.7798147347    7.2916585145
C        6.1170346657   -5.8311998838    3.8741944966
C        5.9375271114   -6.3380708243    2.5859440417
N        8.5160515240   -5.4478705853    4.7842822991
N        4.8776159065   -4.6685102276    5.6072639507
N        4.9676764128   -5.2526291390    4.4581079285
O        4.8528744645   -6.0141993870    1.8923555684
Cl       8.5753623647   -5.5399378212   10.1981662669
Cl       6.6780445877   -5.8180965083   -0.4621351481
Cl       6.0991374565   -2.1404930165    6.7362852050
H        8.9832822394   -9.8553720088    2.7471200596
H        9.5985834163   -9.6147433897    0.3548729762
H        7.3168734549   -8.3593255112    3.7503831479
H        5.5212420596   -7.0196019381    6.6801108668
H        8.5431974487   -7.8413173440   -1.0115558799
H        7.0576654749   -7.3779891289    8.5923581097
H        7.7254642510   -3.1565346745    8.8418389258
H        4.3013862966   -5.4110422005    2.4238055714
30   

C        7.4455351276   -5.4645795599    4.3275162015
C        8.5121965849   -9.1012821706    2.2212454424
C        8.8442289569   -9.0372327398    0.8718988281
C        7.5811988857   -8.2066143486    2.7523523294
C        6.1418206199   -6.2573870550    7.1387191325
C        8.2457745814   -8.0737675810    0.0611271876
C        7.0324342307   -6.4224899532    8.2028822145
C        7.2264863430   -4.0340921515    8.4031462298
C        6.9548175037   -7.2261470739    1.9518135553
C        5.7855693222   -4.9743841960    6.6930258120
C        7.5836223572   -5.3113254208    8.8442802059
C        7.3090759768   -7.1644582081    0.5727117865
C        6.3309465593   -3.8492771061    7.3424630367
C        6.1432556347   -5.8478668214    3.8836756551
C        5.9606342602   -6.3144753670    2.5735965907
N        8.5175232250   -5.1756717029    4.6817964997
N        4.8697265933   -4.8071610846    5.6619191072
N        4.9669806394   -5.3791749607    4.5079551148
O        4.9437916399   -5.8721950354    1.8471299589
Cl       8.6932121012   -5.5127925104   10.1767223979
Cl       6.6820551595   -5.9537706129   -0.5339002030
Cl       5.9234438050   -2.2218784719    6.8341378224
H        8.9753330691   -9.8454616528    2.8597108093
H        9.5685310537   -9.7275892704    0.4534093314
H        7.3350269762   -8.2894026197    3.8049744838
H        5.7124746078   -7.1273503057    6.6556204902
H        8.5155878466   -8.0145131916   -0.9870466028
H        7.2978389982   -7.4180036978    8.5386134698
H        7.6519471059   -3.1658820414    8.8915343962
H        4.4064109494   -5.2616350926    2.3842841458
30   

C        7.4350055742   -5.3207886432    4.2675276226
C        8.4948104788   -9.1141218065    2.2655353218
C        8.8136232163   -9.1146968371    0.9122648634
C        7.5809360565   -8.1847299846    2.7652462674
C        6.2569001157   -6.3253369641    7.1109478152
C        8.2179009255   -8.1817379877    0.0656216733
C        7.1679238943   -6.4446196507    8.1635803003
C        7.1874284977   -4.0526549877    8.4098000495
C        6.9566620085   -7.2308823930    1.9299084400
C        5.7997938701   -5.0644617883    6.6965885160
C        7.6415978702   -5.3083844153    8.8226898689
C        7.2975061498   -7.2376985868    0.5432643754
C        6.2688476313   -3.9143487942    7.3617628709
C        6.1716082716   -5.8533577842    3.8700775049
C        5.9902594090   -6.2756751409    2.5350625248
N        8.4764539769   -4.9055867924    4.5851445938
N        4.8558432734   -4.9485533326    5.6843508034
N        4.9727183783   -5.5038427531    4.5247379729
O        5.0591349430   -5.7133615482    1.7798840878
Cl       8.7741856676   -5.4534359133   10.1429680768
Cl       6.6774043973   -6.0805490420   -0.6237771532
Cl       5.7368966208   -2.3121891599    6.8895617504
H        8.9558549341   -9.8346945459    2.9319835260
H        9.5254743910   -9.8316892088    0.5178667835
H        7.3496557830   -8.2201546406    3.8237766957
H        5.8861884792   -7.2150625455    6.6154898341
H        8.4774373159   -8.1740000170   -0.9868198062
H        7.5080978122   -7.4242779704    8.4777011358
H        7.5530119992   -3.1649202378    8.9114509434
H        4.5384385272   -5.0901929306    2.3186144966
30   

C        7.4209746260   -5.1898542775    4.2369442718
C        8.4363818988   -9.1426688802    2.2860862454
C        8.7333435231   -9.1966197502    0.9296818060
C        7.5567316400   -8.1723467892    2.7684975863
C        6.3809149177   -6.3901163785    7.1085548987
C        8.1472613862   -8.2780043493    0.0618076414
C        7.3131598960   -6.4633329669    8.1463826824
C        7.1788909315   -4.0787421861    8.4270166353
C        6.9448793156   -7.2262230404    1.9134418972
C        5.8334987357   -5.1574890876    6.7213166129
C        7.7202555920   -5.3074389768    8.8156865061
C        7.2600030566   -7.2931834207    0.5199219146
C        6.2367640345   -3.9874252141    7.3947923252
C        6.2083674831   -5.8515453847    3.8791496148
C        6.0295282900   -6.2153145929    2.5129355336
N        8.4203526804   -4.6633538094    4.5228289543
N        4.8625543097   -5.0949026956    5.7308377386
N        4.9984297640   -5.6255739424    4.5625669207
O        5.2064935763   -5.5226940108    1.7432073273
Cl       8.8774734853   -5.3959757674   10.1193998503
Cl       6.6462154159   -6.1754128013   -0.6887845907
Cl       5.5930788785   -2.4179258453    6.9531086275
H        8.8892104063   -9.8528456779    2.9691320883
H        9.4200420980   -9.9447222811    0.5486873210
H        7.3477386776   -8.1698955065    3.8320853663
H        6.0605961033   -7.2953971511    6.6061932110
H        8.3881829260   -8.3145250344   -0.9944709538
H        7.7205215774   -7.4228780287    8.4419848651
H        7.4930132982   -3.1756822747    8.9361473782
H        4.7164414180   -4.8789740916    2.2860707065
30   

C        7.4067228046   -5.0467413213    4.2213712224
C        8.3626544890   -9.1913604526    2.2948055487
C        8.6265550346   -9.3013741679    0.9355685739
C        7.5338229307   -8.1710550818    2.7634500422
C        6.5163288153   -6.4355028875    7.1110056718
C        8.0543840771   -8.3913242097    0.0503119443
C        7.4609138314   -6.4401100384    8.1398944288
C        7.1450515312   -4.0739488305    8.4319398169
C        6.9415269944   -7.2257707685    1.8920584458
C        5.8697233134   -5.2486017150    6.7362562664
C        7.7831204497   -5.2586381840    8.8107788165
C        7.2165546217   -7.3571503656    0.4928240645
C        6.1881323346   -4.0525240770    7.4094655786
C        6.2692662889   -5.8362606944    3.8795692098
C        6.0992000884   -6.1464907901    2.4838271896
N        8.3429413123   -4.4084992024    4.4928233413
N        4.8826962604   -5.2636275266    5.7608526828
N        5.0547268940   -5.7629412465    4.5841741657
O        5.4018599143   -5.3397827690    1.7026473708
Cl       8.9543989561   -5.2626366567   10.1048112982
Cl       6.6053552484   -6.2750055056   -0.7497055814
Cl       5.4203123841   -2.5364756851    6.9798569166
H        8.8034394933   -9.8959172115    2.9914243131
H        9.2755906504  -10.0875292047    0.5653199780
H        7.3558318877   -8.1287842570    3.8316394146
H        6.2609201266   -7.3608328644    6.6079921306
H        8.2666397357   -8.4748679456   -1.0094551933
H        7.9431260486   -7.3666342716    8.4280249792
H        7.3935048882   -3.1510582748    8.9417933121
H        4.9558045180   -4.6629319925    2.2426831106
30   

C        5.9372704288   -7.1171198855    5.0130479338
C        9.3862088382   -7.1008413324    1.5413339143
C        9.2327424416   -7.7578769036    0.3277978164
C        8.2620864357   -6.6917605785    2.2591574041
C        5.6960515931   -4.9870211693    7.6604193679
C        7.9523669684   -7.9941655832   -0.1658167450
C        6.2817886629   -5.4566879582    8.8385151237
C        8.4544002168   -5.2382588746    7.8324869918
C        6.9459108827   -6.9248288383    1.7932700015
C        6.4827416975   -4.6495651055    6.5501823945
C        7.6682059441   -5.5843623006    8.9352650547
C        6.8044824434   -7.5911457759    0.5327177594
C        7.8857663075   -4.7703062670    6.6414234922
C        6.0752307887   -6.0981059409    4.0302329080
C        5.8021410072   -6.4972657289    2.6513144460
N        5.8085895363   -7.9589631372    5.8082480081
N        5.8637993046   -4.1357345611    5.4206412146
N        5.8430748504   -4.7351764279    4.2780829179
O        4.5589541808   -6.6823349599    2.2491925103
Cl       8.4088247136   -6.1511685855   10.4106033167
Cl       5.2674555721   -7.9784690095   -0.2266737018
Cl       8.9390727693   -4.3024089281    5.3204413878
H       10.3786505612   -6.9090145119    1.9342038738
H       10.1024588444   -8.0855302096   -0.2312028135
H        8.4392703583   -6.1858327217    3.1998814893
H        4.6179766062   -4.8868999625    7.5993732550
H        7.8345691464   -8.5087419314   -1.1125601964
H        5.6591546777   -5.7214474640    9.6855342727
H        9.5314282327   -5.3223391838    7.9044121596
H        3.9386728526   -6.3901852482    2.9399839403
30   

C        6.0588896918   -7.0799740361    4.8954892470
C        9.4116447444   -7.2066824533    1.6166979005
C        9.2440648300   -7.9568413739    0.4598182703
C        8.2982349018   -6.6830149244    2.2745652598
C        5.6757001526   -5.1208764279    7.6991061917
C        7.9608249574   -8.1757110969   -0.0353250997
C        6.3655167195   -5.5761812319    8.8250875512
C        8.4501342214   -5.1053325740    7.7242968454
C        6.9808250988   -6.8892185703    1.8010824053
C        6.3649324469   -4.6642394992    6.5670088539
C        7.7607253393   -5.5705229374    8.8479044009
C        6.8241526169   -7.6597745140    0.6046371086
C        7.7769195690   -4.6492046596    6.5838179768
C        6.0720869798   -5.9986020590    3.9689482899
C        5.8487993106   -6.3170070767    2.5849664348
N        6.0434942025   -7.9709561551    5.6462990641
N        5.6328291910   -4.1779986934    5.4931081041
N        5.6525544000   -4.7018253524    4.3135719195
O        4.6222717858   -6.3242527587    2.0889644088
Cl       8.6295153235   -6.1206270456   10.2582958576
Cl       5.2773246717   -8.0594018039   -0.1273436415
Cl       8.7112737998   -4.0302333053    5.2351234193
H       10.4064331962   -7.0294866778    2.0104273240
H       10.1048867001   -8.3720146142   -0.0529023546
H        8.4805122350   -6.1015203723    3.1702694242
H        4.5912472018   -5.1270259639    7.6952624216
H        7.8314991409   -8.7675425121   -0.9342147625
H        5.8168554609   -5.9346064172    9.6886687831
H        9.5325475230   -5.0863764153    7.7400699684
H        4.0040894938   -5.9405454521    2.7358271087
30   

C        6.2060101107   -7.0313569893    4.8434914631
C        9.3979762997   -7.2798297072    1.6340496823
C        9.2001552335   -8.0760972762    0.5125797665
C        8.3049940094   -6.6921155908    2.2721046131
C        5.6390337972   -5.1696327582    7.7254762086
C        7.9072760724   -8.2799565381    0.0350001369
C        6.3886672444   -5.5937187265    8.8249405239
C        8.4062694526   -4.9796075484    7.6715388299
C        6.9808161667   -6.8785060964    1.8115594556
C        6.2636934221   -4.6575037997    6.5798068167
C        7.7807136943   -5.5012638950    8.8076938636
C        6.7915642769   -7.7007771999    0.6572756568
C        7.6727784808   -4.5525170380    6.5568416816
C        6.0559800861   -5.9385720667    3.9407602165
C        5.8717650633   -6.2238300139    2.5594249026
N        6.3323879241   -7.9311018743    5.5731718574
N        5.4655221012   -4.2167430726    5.5325219350
N        5.5050256013   -4.7056696062    4.3378551802
O        4.6772973089   -6.0935130708    2.0034830718
Cl       8.7231276336   -6.0154855800   10.1840475026
Cl       5.2231374752   -8.0946625822   -0.0293555072
Cl       8.5289721657   -3.8638245590    5.1897097371
H       10.4001697356   -7.1153538022    2.0142613196
H       10.0449009133   -8.5395562346    0.0147035760
H        8.5049791211   -6.0723461212    3.1385326329
H        4.5575427302   -5.2455003128    7.7523210614
H        7.7537100934   -8.9098850234   -0.8336522703
H        5.8890618838   -5.9967660303    9.6985712267
H        9.4855356813   -4.8946760937    7.6566052332
H        4.0732778910   -5.6559083809    2.6296342172
30   

C        6.3706007104   -6.9658032570    4.8205047074
C        9.3959136516   -7.3193901903    1.6209686203
C        9.1623706711   -8.1679124666    0.5445859934
C        8.3246696992   -6.6875737476    2.2543386143
C        5.5716045859   -5.2015089475    7.7504782454
C        7.8557359338   -8.3821213150    0.1091336342
C        6.3507298586   -5.5898394879    8.8425166158
C        8.3235349328   -4.8584693744    7.6803049744
C        6.9901537553   -6.8818113433    1.8316982816
C        6.1585477091   -4.6495102351    6.6034840514
C        7.7354074265   -5.4216770498    8.8166740358
C        6.7627617962   -7.7595050671    0.7293257599
C        7.5600935479   -4.4645216157    6.5731142773
C        6.0492721750   -5.8971223467    3.9316857094
C        5.9034578389   -6.1698924152    2.5549107317
N        6.6424074269   -7.8449734611    5.5355692891
N        5.3264138874   -4.2570859822    5.5625505832
N        5.3914992850   -4.7266795215    4.3604654718
O        4.7534202035   -5.9223863732    1.9451245803
Cl       8.7139706119   -5.8953081056   10.1824457200
Cl       5.1677885324   -8.1711006985    0.1198399836
Cl       8.3694697211   -3.7247587781    5.2038230029
H       10.4087221495   -7.1476853620    1.9683875980
H        9.9900819427   -8.6644184827    0.0499734560
H        8.5454732488   -6.0243754845    3.0833020442
H        4.4962544426   -5.3378529471    7.7836337085
H        7.6736706415   -9.0538787629   -0.7218329812
H        5.8799544233   -6.0252528801    9.7166204140
H        9.3966833229   -4.7164264413    7.6586648235
H        4.1602305929   -5.4485196124    2.5554902266
30   

C        6.5039044237   -6.9209392499    4.8000522386
C        9.3992857470   -7.3775743255    1.6018504171
C        9.1307590673   -8.2511511098    0.5530353823
C        8.3509667095   -6.7090310151    2.2364656042
C        5.5168718444   -5.2770088916    7.7675736059
C        7.8122861567   -8.4548364817    0.1474156223
C        6.3258373675   -5.6229022216    8.8520505296
C        8.2401577788   -4.7550240656    7.6860948990
C        7.0075716563   -6.8924598671    1.8410438858
C        6.0594851823   -4.6791325595    6.6219232608
C        7.6966145065   -5.3659683419    8.8200621989
C        6.7434566206   -7.7951496345    0.7709054806
C        7.4460233409   -4.4008207928    6.5867447375
C        6.0368460989   -5.8959649625    3.9230356869
C        5.9411662511   -6.1374189606    2.5459636769
N        6.8981604193   -7.7636580801    5.5020243063
N        5.1955039973   -4.3406837934    5.5874140674
N        5.2853038292   -4.7919270947    4.3792189527
O        4.8602673212   -5.7600487129    1.8765186714
Cl       8.7120885457   -5.7903099579   10.1751406559
Cl       5.1246399633   -8.1889273071    0.2165201051
Cl       8.1984828466   -3.6001657434    5.2190567539
H       10.4212184425   -7.2142128355    1.9257520053
H        9.9405947133   -8.7750301742    0.0570766608
H        8.5935285738   -6.0242949308    3.0418188184
H        4.4529414089   -5.4836260448    7.8049514845
H        7.6023119127   -9.1458876859   -0.6608025088
H        5.8893195773   -6.0954512233    9.7246236652
H        9.3020786146   -4.5453220024    7.6596552442
H        4.2705916470   -5.2645048040    2.4733556440
30   

C        6.6417824224   -6.8402206224    4.8031461460
C        9.4073679313   -7.4060842491    1.5893069130
C        9.0983928562   -8.2998204921    0.5680861971
C        8.3862864883   -6.7024200236    2.2308173602
C        5.4642816692   -5.3517713480    7.8070991009
C        7.7670301102   -8.4881247456    0.1967052110
C        6.2974074222   -5.6516509978    8.8868458478
C        8.1417337888   -4.6298959970    7.7328768622
C        7.0323114672   -6.8729909337    1.8696937294
C        5.9600023570   -4.7010722931    6.6692907112
C        7.6458391716   -5.2955154696    8.8579510911
C        6.7266919635   -7.7925770738    0.8290104744
C        7.3220634852   -4.3185466176    6.6389707787
C        6.0321899392   -5.8753067708    3.9442173457
C        5.9876343418   -6.0835288238    2.5655867613
N        7.1540020405   -7.6324379305    5.4877507632
N        5.0711963498   -4.4187604591    5.6386581230
N        5.1889789207   -4.8487914410    4.4247093869
O        4.9867036294   -5.5830024667    1.8513186224
Cl       8.6915224202   -5.6659736557   10.2059098841
Cl       5.0836516680   -8.1555577877    0.3295948118
Cl       8.0121819834   -3.4463989263    5.2821009599
H       10.4393034872   -7.2539966007    1.8858378694
H        9.8870558011   -8.8503454787    0.0669025653
H        8.6562187310   -6.0008196163    3.0127301295
H        4.4183745748   -5.6361687839    7.8415109568
H        7.5251263128   -9.1931842961   -0.5901622776
H        5.8973513243   -6.1663745448    9.7529785621
H        9.1858877737   -4.3442470453    7.7088214426
H        4.3975130254   -5.0763316407    2.4396100576
30   

C        6.7487598552   -6.7880782302    4.8092849220
C        9.3904252700   -7.4734020384    1.5572340368
C        9.0389169744   -8.3825147385    0.5628639407
C        8.3988211211   -6.7388410135    2.2107537928
C        5.4142111903   -5.4585954936    7.8337313662
C        7.6948364391   -8.5544086528    0.2295145847
C        6.2775445806   -5.6928086303    8.9058714957
C        8.0181457065   -4.5057530187    7.7490635702
C        7.0340335546   -6.8963745775    1.8887621987
C        5.8434675307   -4.7596960429    6.6977769846
C        7.5900896068   -5.2217961223    8.8710990927
C        6.6852811574   -7.8270297450    0.8753958801
C        7.1662416689   -4.2571118120    6.6634098081
C        6.0056774042   -5.9100666458    3.9611116813
C        6.0118548789   -6.0782403188    2.5810984261
N        7.3704173304   -7.5084170263    5.4827991169
N        4.9267123429   -4.5551180906    5.6728496742
N        5.0705898565   -4.9730822257    4.4569093123
O        5.1015829660   -5.4622295959    1.8342575484
Cl       8.6741958780   -5.5141423324   10.2079440494
Cl       5.0198118085   -8.1533331134    0.4301600972
Cl       7.7679962432   -3.3177881585    5.3093409361
H       10.4323425149   -7.3328583792    1.8229850882
H        9.8047266124   -8.9562966112    0.0524172651
H        8.6990498152   -6.0242050353    2.9694596458
H        4.3972770010   -5.8331504599    7.8719279469
H        7.4195126215   -9.2689028469   -0.5375721919
H        5.9294778840   -6.2467986585    9.7701886351
H        9.0339954923   -4.1319079184    7.7204385615
H        4.5075182708   -4.9515057578    2.4143465168
30   

C        6.8955024577   -6.6818074657    4.7914499320
C        9.3838111856   -7.5375723417    1.4746272025
C        8.9755174263   -8.4707291915    0.5244147607
C        8.4330527393   -6.7628568479    2.1428347288
C        5.3680021357   -5.5932125718    7.8164509238
C        7.6159302746   -8.6251730088    0.2485807453
C        6.2388367230   -5.7795488824    8.8919121396
C        7.8719058261   -4.3983943147    7.7949576265
C        7.0546710855   -6.9064757552    1.8800841949
C        5.7413181437   -4.8219409388    6.7082425608
C        7.5021301168   -5.1877985429    8.8882671111
C        6.6484592633   -7.8565770952    0.9106116943
C        7.0103007756   -4.1952077193    6.7072415261
C        6.0229157525   -5.9186130978    3.9547775861
C        6.0666587510   -6.0516126296    2.5735291312
N        7.6230166465   -7.3090062509    5.4522421698
N        4.8228141402   -4.6752245053    5.6752188223
N        5.0061745299   -5.0743410665    4.4575981446
O        5.2483088676   -5.3344237512    1.8103714617
Cl       8.5967803859   -5.4235949457   10.2277584642
Cl       4.9580516488   -8.1427302260    0.5408570796
Cl       7.5334812065   -3.1647007560    5.3875352197
H       10.4379918113   -7.4090940436    1.6941498748
H        9.7096140338   -9.0750775349    0.0027702420
H        8.7750057648   -6.0293258144    2.8649187689
H        4.3903835752   -6.0621205276    7.8293456450
H        7.2962493443   -9.3553701357   -0.4857862662
H        5.9357387509   -6.3910482555    9.7340531368
H        8.8493827194   -3.9324157300    7.7899866724
H        4.6530143076   -4.8165264433    2.3829084203
