27   

C        2.4506190299    1.0384551713   -0.4425085723
C        1.4321090097    0.2124065061   -0.9018019037
C        0.6507468564   -4.0845348958   -1.5569797246
C        2.2679079458    1.7788021325    0.7258687651
C        1.5952384577   -2.6943461989   -0.0816760992
C        0.4730904664   -2.8253622324   -0.8622485340
C        0.2555277928    0.1343143026   -0.1500410669
C        0.1294021504    0.9621628983    1.0040153459
C        1.8483867535   -4.5990339945   -1.1526396080
C       -0.7348448637   -1.9778032921   -1.0471709078
C       -2.1387382356   -0.1132650857   -0.2078836165
C       -2.1305663621    0.1539151139    1.3009400064
N        1.1316121392    1.7460415243    1.4294832877
N       -0.8344801125   -0.6707926310   -0.5504798640
O       -1.7234988655   -2.4605738505   -1.6018475186
O        2.4461246954   -3.7577187127   -0.2524637649
O       -1.0487628496    1.0080640733    1.7253666226
Br       2.5893400838   -6.2551854226   -1.7435560910
H        3.3854442847    1.1230548066   -0.9832676946
H        1.5511462603   -0.3481441056   -1.8238939137
H       -0.0421267874   -4.5380928765   -2.2590993459
H        3.0734193373    2.4149273871    1.0743083038
H        1.7960243140   -1.8831651281    0.6078646790
H       -2.9616192470   -0.7931849252   -0.4507103984
H       -2.3021478840    0.8194772246   -0.7575756014
H       -3.0821361684    0.6133140088    1.5856695201
H       -2.0541354504   -0.8002482975    1.8323618873
27   

C        2.4625383187    0.9273079048   -0.4423235435
C        1.4287624318    0.1123428931   -0.8860387200
C        0.7507309121   -3.9726019507   -1.7138090266
C        2.2843060910    1.7138245622    0.6955724859
C        1.4512520578   -2.7821613440    0.0481165459
C        0.4406688394   -2.8329804391   -0.8773501237
C        0.2380281700    0.0936245951   -0.1516758642
C        0.1224269535    0.9610249014    0.9746513540
C        1.9178737396   -4.5019968617   -1.2427765999
C       -0.7867114330   -2.0086418702   -1.0270931651
C       -2.1654579378   -0.1158250065   -0.2029899551
C       -2.1474728566    0.1956614390    1.2965830912
N        1.1392714632    1.7340414896    1.3851792131
N       -0.8695492054   -0.6974442876   -0.5386911804
O       -1.7945065342   -2.5112702930   -1.5253022508
O        2.3689761194   -3.7795782951   -0.1690022718
O       -1.0580806452    1.0552799256    1.6869810499
Br       2.7963984853   -6.0364868053   -1.9599942979
H        3.4060224947    0.9676462419   -0.9730617588
H        1.5487269875   -0.4814978475   -1.7867759604
H        0.1602426410   -4.3455015494   -2.5448319491
H        3.1015333939    2.3418174794    1.0312361323
H        1.5209696369   -2.0669475305    0.8600266789
H       -2.9972467707   -0.7933816515   -0.4205733834
H       -2.3226529720    0.8022080979   -0.7785901344
H       -3.0941600466    0.6700626182    1.5727763643
H       -2.0739403498   -0.7425126144    1.8561543022
27   

C        2.4470795044    0.8782834213   -0.4665482448
C        1.4035747068    0.0672174729   -0.8935245043
C        0.8634448134   -3.7965079007   -1.8655006897
C        2.2775245472    1.6924398444    0.6524797393
C        1.3265356065   -2.8657767764    0.1195690725
C        0.4210063895   -2.8098804713   -0.9054660756
C        0.2096545210    0.0805656461   -0.1629247865
C        0.1064663216    0.9720824028    0.9462146042
C        2.0055161983   -4.3484611946   -1.3587814303
C       -0.8359345832   -2.0217124363   -1.0067229410
C       -2.1996074961   -0.1118037449   -0.1918130045
C       -2.1645139829    0.2277146214    1.3007897137
N        1.1323535487    1.7419415747    1.3401325624
N       -0.9099663861   -0.7043723735   -0.5339465694
O       -1.8608175294   -2.5567581415   -1.4279679523
O        2.3132486047   -3.7818238967   -0.1485191881
O       -1.0702109164    1.0935684539    1.6604927661
Br       3.0255157154   -5.7250822261   -2.1985588419
H        3.3915908566    0.8939693452   -0.9967171317
H        1.5208227899   -0.5451626124   -1.7817869982
H        0.3735711313   -4.0632455211   -2.7964712252
H        3.1022218782    2.3178580260    0.9743836458
H        1.2724589954   -2.2769970097    1.0287407702
H       -3.0369410048   -0.7892048351   -0.3871802072
H       -2.3604598936    0.7961498575   -0.7821708614
H       -3.1073198930    0.7088357156    1.5785876706
H       -2.0853110806   -0.6994994068    1.8775387480
27   

C        2.4552354521    0.7963858298   -0.4557065866
C        1.3995300363   -0.0118086550   -0.8566633809
C        0.9701238389   -3.6484001490   -1.8629586401
C        2.2943433387    1.6574672136    0.6283384034
C        1.1914135193   -3.0201275735    0.2780025072
C        0.3974508850   -2.8307478625   -0.8175879479
C        0.2004763812    0.0512889756   -0.1359629338
C        0.1093829449    0.9873080581    0.9376262673
C        2.0767177126   -4.2423613392   -1.3251232985
C       -0.8776963695   -2.0641840818   -0.8981090442
C       -2.2139324659   -0.1033387939   -0.1589546567
C       -2.1722698755    0.2925487818    1.3190309458
N        1.1465596868    1.7548653328    1.3061316058
N       -0.9336735392   -0.7269789523   -0.4819238248
O       -1.9176971618   -2.6248877223   -1.2379990768
O        2.2370263618   -3.8594520792   -0.0176979984
O       -1.0668424776    1.1578285995    1.6424471131
Br       3.2323258762   -5.4479876969   -2.2479314290
H        3.4027346914    0.7733190582   -0.9801728348
H        1.5139816450   -0.6572710734   -1.7209416657
H        0.5883333001   -3.7840658133   -2.8695482322
H        3.1284827278    2.2806583160    0.9295429816
H        1.0189651067   -2.5749888173    1.2517752381
H       -3.0620770822   -0.7742834471   -0.3278017872
H       -2.3628152243    0.7838885935   -0.7829891809
H       -3.1082810919    0.7963431465    1.5790041810
H       -2.1036257829   -0.6124603002    1.9312252845
27   

C        2.4392080310    0.7515257102   -0.4962581635
C        1.3671904964   -0.0478639132   -0.8706580097
C        1.0042181356   -3.4868661616   -1.8597472071
C        2.3018963588    1.6374891885    0.5705901298
C        1.0684362295   -3.1764234084    0.3602748619
C        0.3463587292   -2.8394739172   -0.7468406872
C        0.1758631180    0.0483561869   -0.1412409879
C        0.1099774203    1.0081943714    0.9134690438
C        2.0872963778   -4.1370615293   -1.3391411629
C       -0.9420306558   -2.0837557990   -0.7849409179
C       -2.2392643984   -0.0645924381   -0.1387276819
C       -2.1798991912    0.3608086041    1.3300080373
N        1.1619738453    1.7677977254    1.2558366854
N       -0.9738260708   -0.7212094859   -0.4560734431
O       -2.0006725493   -2.6673462019   -1.0039991188
O        2.1514069396   -3.9483408910    0.0180544752
O       -1.0562921819    1.2122511933    1.6262009573
Br       3.3312783713   -5.1751641480   -2.3467241742
H        3.3814670933    0.7019211608   -1.0281757974
H        1.4642913885   -0.7108602714   -1.7227753253
H        0.6942324201   -3.4796852765   -2.8994225505
H        3.1485477919    2.2533681260    0.8511953501
H        0.8205254801   -2.8811705431    1.3738287030
H       -3.1035581163   -0.7184720603   -0.2913378571
H       -2.3725518998    0.8129279712   -0.7797999055
H       -3.1043777346    0.8876392363    1.5854550475
H       -2.1236073278   -0.5323217103    1.9606122450
27   

C        2.4465560269    0.6688632356   -0.5517157147
C        1.3511233488   -0.1112433776   -0.8984796993
C        0.9548067876   -3.3909698699   -1.8470172827
C        2.3461511701    1.5711113182    0.5054902630
C        0.9707426780   -3.3846212515    0.3945674313
C        0.2776698084   -2.8912907385   -0.6699280488
C        0.1750927408    0.0193804176   -0.1516144100
C        0.1468945074    0.9953816780    0.8905030222
C        2.0216561385   -4.1159612493   -1.3966901826
C       -1.0047449091   -2.1208092699   -0.6272724720
C       -2.2360568075   -0.0230435606   -0.1241258295
C       -2.1584525818    0.4214746886    1.3376302906
N        1.2203042478    1.7364857081    1.2059524655
N       -0.9958100987   -0.7315594939   -0.4305168661
O       -2.0853172415   -2.7023094449   -0.6733534962
O        2.0556363913   -4.1143990811   -0.0257294820
O       -1.0039332816    1.2369846814    1.6171837849
Br       3.2829439464   -5.0160429012   -2.5099043077
H        3.3788897842    0.5914908186   -1.0975302537
H        1.4189023569   -0.7841458726   -1.7440809034
H        0.6702494192   -3.2400672432   -2.8829320612
H        3.2106006756    2.1713408657    0.7649036672
H        0.7011920441   -3.2284477154    1.4332201589
H       -3.1258829169   -0.6427691241   -0.2723213196
H       -2.3346756708    0.8498270900   -0.7777474188
H       -3.0627620118    0.9852356710    1.5862588784
H       -2.1329599669   -0.4636345512    1.9814325861
27   

C        2.2240205097    1.6210838401   -0.0995979828
C        1.5560584971    0.4458028497    0.2187980460
C        1.0652362751   -1.6666911021   -2.3015765927
C        1.4983155193    2.7432712944   -0.4953601034
C        2.0106590930   -2.8991593359   -0.6836494761
C        0.8692632937   -2.2134426087   -0.9767355599
C        0.1611887136    0.4211442965    0.1095310432
C       -0.5055613177    1.6255129926   -0.2674129637
C        2.3086711231   -2.0668804701   -2.7008763260
C       -0.3122911924   -2.0128148807   -0.0843297102
C       -1.9322639401   -0.4354659474    0.9457381556
C       -2.6275771395    0.4885002355   -0.0569656947
N        0.1640181205    2.7485239929   -0.5704381000
N       -0.6057147917   -0.7331354529    0.4114923696
O       -1.1123461569   -2.9198301643    0.1307817775
O        2.9051868707   -2.8219532397   -1.7225711707
O       -1.8850673780    1.6951898708   -0.3203018684
Br       3.1144929302   -1.6318331830   -4.3745055637
H        3.3038200572    1.6806846337   -0.0396356839
H        2.1162866427   -0.4179296143    0.5551536791
H        0.3718158663   -1.0549882094   -2.8691547656
H        2.0345035713    3.6520915010   -0.7431686571
H        2.1934130826   -3.4260274809    0.2463576553
H       -1.8384678209    0.0639452819    1.9155272437
H       -2.5392600757   -1.3333820401    1.0974658564
H       -2.7755728101   -0.0502034884   -0.9986132525
H       -3.6157901095    0.7547197019    0.3301854768
27   

C        2.1173030939    1.7050624902   -0.3748032305
C        1.4903545203    0.5031897493   -0.0732533474
C        0.8148837741   -1.3976078971   -2.5511661940
C        1.3514452748    2.8494499503   -0.5891031698
C        1.7751605004   -2.9532407808   -1.2477093795
C        0.6989997579   -2.1155184366   -1.2998871418
C        0.0917571858    0.4759256619   -0.0152741772
C       -0.6127787443    1.7014042207   -0.2121404565
C        1.9528090997   -1.8571706809   -3.1510759430
C       -0.3403489719   -1.9698123172   -0.2406036901
C       -1.8971443307   -0.4665143213    0.9828959907
C       -2.6960681868    0.5332212603    0.1431455854
N        0.0177928556    2.8499434250   -0.5032461421
N       -0.6327334280   -0.7049038764    0.2915098570
O       -1.0294220677   -2.9255795242    0.1109736875
O        2.5568739723   -2.8085629099   -2.3677231693
O       -1.9880606280    1.7652569337   -0.0934533264
Br       2.6209585652   -1.2574513252   -4.8343791100
H        3.1966125720    1.7676526669   -0.4404690342
H        2.0863063285   -0.3807490918    0.1212018046
H        0.1420743269   -0.6402032662   -2.9397934860
H        1.8557169139    3.7792614267   -0.8258074387
H        1.9889508725   -3.6348973018   -0.4317504829
H       -1.7042723403   -0.0535002498    1.9783192384
H       -2.4858913599   -1.3799378767    1.1124045952
H       -2.9430697214    0.0760006537   -0.8205120206
H       -3.6377076831    0.7552770791    0.6544117370
27   

C        2.0315359629    2.2310343154    0.4006912280
C        1.5858827216    0.9195288415    0.4996541339
C        1.8425915911   -0.8168883319   -2.0658996531
C        1.1289373293    3.2459584616    0.0884211364
C        2.6322404356   -2.5340160297   -0.8506429574
C        1.5436619145   -1.7172730717   -0.9719578377
C        0.2325419726    0.6545391082    0.2576284859
C       -0.6295004608    1.7574748795   -0.0188935440
C        3.0906301103   -1.1541584036   -2.5073184227
C        0.3290972189   -1.8118124319   -0.1172267022
C       -1.7098574672   -0.6947645484    0.7615251076
C       -2.4927507231    0.2302916265   -0.1740723761
N       -0.1725416773    3.0161934895   -0.1106711782
N       -0.3103069346   -0.6529287359    0.3469619773
O       -0.1856667723   -2.9017984157    0.1307515879
O        3.5930749859   -2.1997598648   -1.7737867512
O       -1.9892627684    1.5798587444   -0.1882293238
Br       4.0138336670   -0.2930870061   -3.9376862227
H        3.0725764582    2.4781813658    0.5689658256
H        2.2809548388    0.1320096767    0.7682686396
H        1.2111836024   -0.0279774420   -2.4615669250
H        1.4929436639    4.2640816528    0.0123126240
H        2.7268811425   -3.3348185037   -0.1252395284
H       -1.8018340163   -0.3506412895    1.7967882311
H       -2.1336407191   -1.7023803784    0.7063515123
H       -2.4535474525   -0.1719418226   -1.1915869532
H       -3.5423066479    0.2441161414    0.1352161472
27   

C        2.2407970370    1.7141411208    0.3008470524
C        1.5917992465    0.5141745697    0.5608382485
C        1.9438691364   -1.6859268059   -1.5296255680
C        1.5484139980    2.7548373544   -0.3159789800
C        2.0959533606   -3.4443754315   -0.1382302824
C        1.3037925951   -2.3655411756   -0.4213422423
C        0.2545355587    0.3814400698    0.1691512822
C       -0.3901433603    1.5095467776   -0.4197483673
C        3.0791463345   -2.3931809372   -1.8074925630
C        0.0222769917   -2.1031460243    0.2842891723
C       -1.9146145596   -0.5844936842    0.6208932918
C       -2.4339937934    0.2324131075   -0.5657672231
N        0.2613123491    2.6575849581   -0.6631141878
N       -0.4869405780   -0.8026095369    0.4084436024
O       -0.6524201854   -3.0356222783    0.7230644259
O        3.1944257684   -3.4684641505   -0.9628945775
O       -1.7313806094    1.4765961899   -0.7503357981
Br       4.3305498415   -1.9554108997   -3.1794491478
H        3.2786156672    1.8555099406    0.5767655310
H        2.1186674327   -0.2900638602    1.0628294127
H        1.5995109071   -0.7973755662   -2.0488192668
H        2.0698072028    3.6840495241   -0.5149281580
H        1.8861493618   -4.1824730088    0.6285612608
H       -2.0728875476   -0.0366447146    1.5555040724
H       -2.4755574629   -1.5223503893    0.6831642865
H       -2.3409480344   -0.3636724535   -1.4793740988
H       -3.4974701782    0.4418660773   -0.4154423740
27   

C        2.0926423396    2.0891501755    0.5865038874
C        1.5539472370    0.8216009122    0.7655930211
C        2.1850588109   -1.2428652449   -1.3676160920
C        1.3159851187    3.0957884009    0.0147263569
C        2.2635820606   -3.2101070061   -0.2842429381
C        1.5226408873   -2.0611816056   -0.3701565069
C        0.2414867142    0.5898443204    0.3387138946
C       -0.4972784489    1.6862619843   -0.1967450533
C        3.2849546779   -1.9452423554   -1.7715042625
C        0.2394416862   -1.9101261312    0.3632556101
C       -1.8340294743   -0.5905727703    0.7101499309
C       -2.4167700559    0.2410853716   -0.4366563987
N        0.0487121629    2.9010991679   -0.3631319011
N       -0.3913238639   -0.6665129431    0.5041142387
O       -0.3231616892   -2.8980220499    0.8392607729
O        3.3567342072   -3.1466153098   -1.1136798731
O       -1.8268342380    1.5508828897   -0.5479459586
Br       4.5394443147   -1.3519276507   -3.0808667470
H        3.1082121512    2.3093612240    0.8919751503
H        2.1439067689    0.0403271387    1.2330860906
H        1.8760938744   -0.2741073296   -1.7461778454
H        1.7516118490    4.0789836921   -0.1209813359
H        2.0210908627   -4.0599200437    0.3450852691
H       -2.0490550919   -0.1132975573    1.6717485681
H       -2.3055134161   -1.5785461403    0.7113690844
H       -2.2655421782   -0.2936846281   -1.3799157203
H       -3.4956198900    0.3468667114   -0.2869438145
27   

C        2.3488990634    1.8457772576   -0.4836964063
C        1.5361548130    0.7898999968   -0.8766160882
C        2.1647754845   -1.9203340962    0.3418844127
C        1.9240158836    2.7056981622    0.5286541102
C        1.3887264879   -3.6127286648   -0.9143624988
C        1.0961087892   -2.3214185667   -0.5555801647
C        0.3162696296    0.6104557464   -0.2163924486
C       -0.0637481502    1.5625892140    0.7747090679
C        3.0297430729   -2.9755558824    0.4082422477
C       -0.2114801005   -1.7240833468   -0.9375628832
C       -1.9885520284   -0.0786276103   -0.4037700778
C       -2.1674100327    0.4045237755    1.0394025123
N        0.7427920431    2.5713462104    1.1399370312
N       -0.5811630594   -0.4230803754   -0.5727724342
O       -1.0283310265   -2.3917337384   -1.5756158390
O        2.5799664107   -4.0157353843   -0.3625648478
O       -1.3018422476    1.5036917141    1.3860944538
Br       4.6254817259   -3.0154527586    1.4535213349
H        3.3076472268    2.0156126319   -0.9581886940
H        1.8456492531    0.1284452608   -1.6793382585
H        2.2682984267   -0.9926809683    0.8936642097
H        2.5708664787    3.5227550220    0.8267585968
H        0.7654245642   -4.2424224071   -1.5406081360
H       -2.6484087405   -0.9339934450   -0.5811637030
H       -2.2663324111    0.7136172682   -1.1065841373
H       -3.2081722605    0.7092891950    1.1859944747
H       -1.9683279968   -0.4274242252    1.7226343219
27   

C        2.3750418297    1.7406368874   -0.4535417893
C        1.5419436733    0.6953406886   -0.8306745263
C        2.0452116010   -1.9952590222    0.4807015624
C        1.9546696758    2.6414110726    0.5238574105
C        1.4925105914   -3.5225807487   -1.0722985548
C        1.0552101383   -2.3484953684   -0.5185140411
C        0.3036121070    0.5673047394   -0.1913962864
C       -0.0663400973    1.5570286354    0.7668552312
C        3.0110178167   -2.9596166724    0.4217926286
C       -0.2666874435   -1.7698734242   -0.8720753403
C       -2.0168929014   -0.0814905628   -0.3750847646
C       -2.1926057368    0.4486002720    1.0512790238
N        0.7597169042    2.5554911073    1.1166064833
N       -0.6150801610   -0.4557535523   -0.5315164447
O       -1.1103521121   -2.4572747123   -1.4506326085
O        2.6969816860   -3.8974461506   -0.5285048348
O       -1.3122514993    1.5453835776    1.3643033597
Br       4.5715618498   -3.0107683505    1.5182782574
H        3.3466579386    1.8705467652   -0.9142721526
H        1.8519014102    0.0057079375   -1.6086927976
H        2.0316467438   -1.1509258704    1.1620129403
H        2.6173658564    3.4502562431    0.8092737959
H        0.9610806754   -4.0872184200   -1.8311160889
H       -2.6921435873   -0.9295610317   -0.5274296600
H       -2.2796177392    0.6934956825   -1.1024573776
H       -3.2290680126    0.7732384020    1.1849957049
H       -2.0073810184   -0.3641811649    1.7609680370
27   

C        2.4641031180    1.3595792137   -0.3494425678
C        1.5432632629    0.4007343308   -0.7511628932
C        1.7875277733   -2.3404898233    0.5763700975
C        2.1236783793    2.2682988213    0.6511805675
C        1.3228314152   -3.6176222767   -1.2136926912
C        0.8356822240   -2.5612609668   -0.4937184315
C        0.2975868903    0.3649067683   -0.1137181409
C        0.0164718047    1.3570244700    0.8720466386
C        2.7806281549   -3.2620100729    0.4007785094
C       -0.4657813573   -1.9123995073   -0.8005690969
C       -2.0704842547   -0.0854252213   -0.2923926625
C       -2.1913571820    0.4195549800    1.1483135302
N        0.9259130136    2.2712827968    1.2444213622
N       -0.7053754066   -0.5706789583   -0.4712070959
O       -1.3866784194   -2.5618310757   -1.2979353571
O        2.5189818229   -4.0481932024   -0.6929944913
O       -1.2228422880    1.4338659137    1.4782487742
Br       4.3163011418   -3.4394943312    1.5188685965
H        3.4437471354    1.4154725281   -0.8080896404
H        1.7940350099   -0.2928238185   -1.5464426065
H        1.7327994458   -1.6007307845    1.3684746483
H        2.8544287543    3.0086556228    0.9557176177
H        0.8325527055   -4.0586551170   -2.0750241500
H       -2.8171814739   -0.8676661185   -0.4616696584
H       -2.2719916584    0.7282950184   -0.9966223167
H       -3.1970112165    0.8231054885    1.3008194649
H       -2.0664355500   -0.4236808575    1.8353359412
27   

C        2.4178633672    1.6201614160   -0.2759095313
C        1.5957090509    0.5608861055   -0.6369643040
C        1.8398091546   -2.0311722907    1.0672401866
C        1.9366606150    2.6071446232    0.5822489539
C        1.8319544537   -3.2759625070   -0.8033629504
C        1.0768531548   -2.3677677302   -0.1165150068
C        0.3025019669    0.5074063632   -0.1028307232
C       -0.1220247214    1.5791603220    0.7382124336
C        2.9972232122   -2.7530513472    0.9931171821
C       -0.2577527185   -1.8825736840   -0.5610110395
C       -2.0114789180   -0.1283521209   -0.4042285877
C       -2.2806961570    0.5207470503    0.9559747719
N        0.6937681567    2.5909950448    1.0733342650
N       -0.6080014745   -0.5310336732   -0.4270952486
O       -1.1085647162   -2.6669856154   -0.9798521902
O        3.0138857114   -3.5179146277   -0.1463981800
O       -1.4101700793    1.6339207000    1.2349619883
Br       4.4002380400   -2.7047525237    2.2849825485
H        3.4287920825    1.6938610390   -0.6576876765
H        1.9591129386   -0.1933761518   -1.3257398642
H        1.5596122455   -1.3432944222    1.8583879432
H        2.5915554296    3.4261950269    0.8563578470
H        1.5406995784   -3.7409715200   -1.7389839487
H       -2.6925252977   -0.9746512875   -0.5380282227
H       -2.2064650863    0.5873366688   -1.2094673867
H       -3.3194633336    0.8633847945    0.9875468035
H       -2.1566060168   -0.2303426918    1.7428066431
27   

C        2.4516104713    1.2269470549    0.3477019451
C        1.5720376139    0.2347689397   -0.0651345080
C        0.9878008913   -2.0970262567    2.0393593290
C        1.9573604154    2.3801777627    0.9542270608
C        1.4097770378   -3.4085873868    0.2666026006
C        0.5313179284   -2.4659790496    0.7164593656
C        0.2031571069    0.4185029307    0.1641533936
C       -0.2197468596    1.6452057755    0.7585086717
C        2.1062319696   -2.8436385346    2.2794224316
C       -0.6277457944   -1.9230713458   -0.0486464584
C       -2.0653438260    0.0354712540   -0.5756971681
C       -2.5120988386    0.9020490272    0.6042982067
N        0.6517295699    2.5882524580    1.1492709838
N       -0.7678290020   -0.5386674858   -0.2287235647
O       -1.5308834224   -2.6584041054   -0.4430041028
O        2.3829165106   -3.6514508357    1.2049268851
O       -1.5595750984    1.9278164313    0.9444144849
Br       3.1486159736   -2.7706620475    3.8755759251
H        3.5192032336    1.1199217734    0.1996152604
H        1.9531034614   -0.6496263414   -0.5620885930
H        0.5419230762   -1.3699402669    2.7101099372
H        2.6570369446    3.1442240853    1.2729030438
H        1.3527847813   -3.8948910662   -0.7010802313
H       -2.8255550729   -0.7272322441   -0.7708899540
H       -1.9714564601    0.6474435808   -1.4786492814
H       -3.4696430347    1.3713994470    0.3589340635
H       -2.6717752854    0.2629741264    1.4788193041
27   

C        2.4934896808    1.2183872411   -0.1360592396
C        1.5545662967    0.2843757660   -0.5542891832
C        1.2652668407   -2.4187200194    1.3542942838
C        2.1119896647    2.2426196791    0.7288450801
C        1.5458415046   -3.2071001642   -0.7267317654
C        0.6610800771   -2.5118927374    0.0432518535
C        0.2459975048    0.3919944484   -0.0703567622
C       -0.0677839821    1.4926067384    0.7824303381
C        2.4654921537   -3.0652541120    1.2695202853
C       -0.6336252736   -1.9108334344   -0.3984702757
C       -2.1095424961    0.0860022826   -0.4850258105
C       -2.3600593735    0.7331936521    0.8791523336
N        0.8589570975    2.3816938675    1.1722599125
N       -0.7792434041   -0.5156278128   -0.4399064962
O       -1.6230648122   -2.6072845595   -0.6105624752
O        2.6567770065   -3.5544355988    0.0017614656
O       -1.3566072005    1.7044682188    1.2349962829
Br       3.7112258710   -3.2545510549    2.7019857591
H        3.5201286448    1.1659028222   -0.4771920477
H        1.8422354239   -0.4947352055   -1.2494971570
H        0.8573703367   -1.9293282194    2.2325196280
H        2.8571543962    2.9620232098    1.0482940051
H        1.3991080425   -3.4454008180   -1.7743896242
H       -2.8978378018   -0.6437599573   -0.6942119968
H       -2.1476294442    0.8441005700   -1.2740410088
H       -3.3399558204    1.2200083190    0.8676947197
H       -2.3874842945   -0.0469637546    1.6468889012
27   

C        2.3742123822    1.0106746282    0.2920803901
C        1.5191976351   -0.0444867330    0.5825434373
C        1.8559348305   -3.4650504748    0.5832674230
C        1.8987093515    2.1103273348   -0.4195930702
C        1.3593169734   -2.8847797976   -1.5242594599
C        0.8600787442   -2.8361563108   -0.2572634838
C        0.1981277937    0.0214555479    0.1260965308
C       -0.2157831914    1.2020744695   -0.5625223666
C        2.8900181198   -3.8100839389   -0.2402613135
C       -0.5006478667   -2.3680094688    0.1542464646
C       -2.1201893960   -0.5190828373    0.5126475926
C       -2.4467225188    0.2890162165   -0.7446128361
N        0.6311567168    2.2078144552   -0.8310964386
N       -0.7493811479   -1.0047874519    0.3746106724
O       -1.4402620728   -3.1560445216    0.2176174318
O        2.6099445586   -3.4522757147   -1.5341795679
O       -1.5249905189    1.3729223590   -0.9719479038
Br       4.4942527644   -4.6776893587    0.3200346382
H        3.4069771290    0.9948963596    0.6181084267
H        1.8800193000   -0.8806626083    1.1682503979
H        1.7953670786   -3.6463632119    1.6511255302
H        2.5790326576    2.9248524307   -0.6399403902
H        0.8394744315   -2.5295722601   -2.4071176416
H       -2.1995454444    0.1175939821    1.3998879072
H       -2.8472732290   -1.3290416705    0.6272262471
H       -2.4335757403   -0.3771048064   -1.6133243627
H       -3.4591912905    0.6940968056   -0.6538672285
27   

C        2.3640860368    1.0448701900    0.2493008915
C        1.5163346225   -0.0099383204    0.5608949646
C        1.8408211909   -3.5912256579    0.5773946036
C        1.8794754611    2.1298610853   -0.4786096623
C        1.3704276319   -2.7278819763   -1.4382702664
C        0.8732864465   -2.8208125590   -0.1714222059
C        0.1919331623    0.0420693337    0.1093603357
C       -0.2307597592    1.2075532800   -0.5984978656
C        2.8581255875   -3.8750801370   -0.2894333728
C       -0.4637155455   -2.3542933068    0.3054128386
C       -2.1280735645   -0.5183271158    0.4965350414
C       -2.4493904396    0.2683924347   -0.7760663920
N        0.6099636261    2.2127510785   -0.8877786182
N       -0.7480138039   -0.9838417648    0.3872984211
O       -1.3606336980   -3.1623726954    0.5332638816
O        2.5947345456   -3.3436158277   -1.5263468536
O       -1.5415673502    1.3625869591   -1.0077884359
Br       4.4204061451   -4.8803352557    0.1454359679
H        3.3981570940    1.0402326804    0.5716748908
H        1.8854289243   -0.8363673032    1.1574273329
H        1.7704086566   -3.9031921563    1.6141122125
H        2.5543698985    2.9444612337   -0.7148475038
H        0.8674280330   -2.2400516511   -2.2658802177
H       -2.2331947661    0.1269822660    1.3747734734
H       -2.8429881670   -1.3400511152    0.6038733733
H       -2.4145678197   -0.4089093743   -1.6354582977
H       -3.4690112014    0.6592396965   -0.7047905731
27   

C        2.3411769951    1.1573239004    0.2379922950
C        1.5410756441    0.0701515672    0.5641012361
C        1.9141765148   -3.7086749110    0.5202844106
C        1.8076111606    2.2122532418   -0.5002009579
C        1.5425922255   -2.5238128568   -1.3466547309
C        0.9999725157   -2.7914229945   -0.1217265165
C        0.2141481801    0.0608030129    0.1165521928
C       -0.2613841606    1.1984982181   -0.6021548081
C        2.9465542664   -3.8990898173   -0.3540976629
C       -0.3251580783   -2.3569610362    0.4030609338
C       -2.0785915432   -0.5993991742    0.5181975217
C       -2.4360108094    0.1595031681   -0.7621255410
N        0.5345117117    2.2351592417   -0.9063936656
N       -0.6784768501   -1.0006713915    0.4135102735
O       -1.1619095309   -3.1917576508    0.7413747121
O        2.7439513108   -3.1709530647   -1.4988497496
O       -1.5791743531    1.2913072077   -1.0073344394
Br       4.4527911140   -5.0284205366   -0.0436072639
H        3.3753629587    1.2014516400    0.5571549783
H        1.9469044856   -0.7350755090    1.1671012324
H        1.7973555447   -4.1734972363    1.4937752409
H        2.4457032260    3.0527616011   -0.7477155294
H        1.0865963343   -1.8920007964   -2.1009768977
H       -2.2152782018    0.0476592863    1.3907738543
H       -2.7529882456   -1.4542533736    0.6297298517
H       -2.3710881881   -0.5242549745   -1.6146481246
H       -3.4724002392    0.5041233990   -0.6939609277
27   

C        2.3234812526    1.2304484749    0.2731015747
C        1.5415232728    0.1364713945    0.6206533260
C        1.8347788591   -3.8714454068    0.4977177953
C        1.7807263814    2.2482137616   -0.5100931166
C        1.6851612884   -2.3900706727   -1.1768883568
C        1.0395456683   -2.7889220987   -0.0376400848
C        0.2248536657    0.0837923891    0.1484200524
C       -0.2636638827    1.1860237700   -0.6145202637
C        2.9018898332   -4.0229637205   -0.3413634283
C       -0.2665460633   -2.3354370951    0.5099079826
C       -2.0557940234   -0.6123986864    0.5438522229
C       -2.4143381370    0.0956356532   -0.7655356941
N        0.5151965335    2.2289786714   -0.9399735182
N       -0.6470593237   -0.9872821116    0.4644857747
O       -1.0741326823   -3.1634821626    0.9297254437
O        2.8352101538   -3.1152171354   -1.3670609393
O       -1.5765747519    1.2348804140   -1.0427733328
Br       4.2847412020   -5.3213622927   -0.1349795098
H        3.3501807505    1.3090755345    0.6094529502
H        1.9504934147   -0.6430781698    1.2553284602
H        1.6167684780   -4.4633657646    1.3808562419
H        2.4046462782    3.0941391731   -0.7747235392
H        1.3358342938   -1.6142392719   -1.8493728819
H       -2.2147429591    0.0602894081    1.3929703362
H       -2.7127702324   -1.4778086729    0.6765778422
H       -2.3278459330   -0.6158884510   -1.5931171005
H       -3.4578516333    0.4219662208   -0.7194881852
27   

C        2.3248869242    1.2860463018    0.2623141290
C        1.5567047023    0.1861848354    0.6227851102
C        1.7187393350   -4.0226434424    0.3245401479
C        1.7737430324    2.2806069624   -0.5453165500
C        1.8085125264   -2.3033146436   -1.1065353859
C        1.0554591213   -2.7994676703   -0.0735383783
C        0.2471856118    0.1047678513    0.1369596087
C       -0.2534734197    1.1859150494   -0.6471443186
C        2.8147199779   -4.1567629989   -0.4786978408
C       -0.2168325830   -2.3180848574    0.5247686698
C       -2.0201930829   -0.6121418375    0.5472842982
C       -2.3923904660    0.0675178209   -0.7739284219
N        0.5124120218    2.2341739527   -0.9857250735
N       -0.6085442616   -0.9736461469    0.4641604658
O       -0.9953176843   -3.1315269204    1.0235448904
O        2.8931542744   -3.1067485351   -1.3560066796
O       -1.5654244512    1.2076846848   -1.0809692651
Br       4.0578762417   -5.6026139074   -0.4083805222
H        3.3469282794    1.3876433193    0.6066724383
H        1.9682773845   -0.5783887346    1.2742454445
H        1.3974464597   -4.7103609361    1.1005202826
H        2.3869437725    3.1308872555   -0.8208412735
H        1.5810021772   -1.4070045683   -1.6726259323
H       -2.1806713230    0.0746208701    1.3847890728
H       -2.6666988822   -1.4822326566    0.6998331816
H       -2.3056422807   -0.6599619356   -1.5875283016
H       -3.4382617587    0.3862330181   -0.7277789209
27   

C        2.2772112659    1.3652826216    0.3159029805
C        1.5272174965    0.2537264690    0.6803106109
C        1.5718501594   -4.1351309211    0.1215575333
C        1.7249280773    2.3253664306   -0.5326454785
C        1.9465048221   -2.2315432402   -0.9905979282
C        1.0577642164   -2.8005211823   -0.1117688077
C        0.2380858044    0.1259067508    0.1539207065
C       -0.2702859390    1.1769019819   -0.6645209752
C        2.7133342289   -4.2589937428   -0.6160973859
C       -0.1921616792   -2.3076855345    0.5259105968
C       -2.0133749361   -0.6239671358    0.5537590134
C       -2.3897113493    0.0175307364   -0.7859817941
N        0.4781410188    2.2363562348   -1.0069504709
N       -0.5967486418   -0.9661917945    0.4800042432
O       -0.9485438457   -3.1192320802    1.0621617301
O        2.9636366401   -3.0995327022   -1.3004094262
O       -1.5736580746    1.1576695791   -1.1244776128
Br       3.8064808901   -5.8209185866   -0.6964960936
H        3.2855167378    1.5028076297    0.6872278935
H        1.9349391291   -0.4876091034    1.3606376397
H        1.1278975252   -4.8964599251    0.7556291492
H        2.3241160268    3.1842371041   -0.8123346692
H        1.8658647965   -1.2408126352   -1.4214178052
H       -2.1847911092    0.0812939849    1.3735850868
H       -2.6477813011   -1.4989445091    0.7277601365
H       -2.2946747759   -0.7307701571   -1.5795203685
H       -3.4389104232    0.3264962658   -0.7496842521
27   

C        2.2431353201    1.4644289978    0.3598312893
C        1.5129639874    0.3467836733    0.7467105614
C        1.4453633527   -4.2049261536   -0.0256016776
C        1.6985904642    2.3636366002   -0.5583379743
C        2.1135462997   -2.2182404607   -0.7984640626
C        1.0918125494   -2.7991277640   -0.0861505554
C        0.2560222169    0.1496800348    0.1688508518
C       -0.2532369619    1.1463261148   -0.7137690999
C        2.6255307104   -4.3545378732   -0.6929038668
C       -0.1399917539   -2.2859837211    0.5757855766
C       -1.9806064142   -0.6278544187    0.5584718752
C       -2.3486879752   -0.0607962825   -0.8175221582
N        0.4757733274    2.2122357978   -1.0773020178
N       -0.5580474362   -0.9489686743    0.5161801580
O       -0.8783715200   -3.0868508506    1.1523681256
O        3.0528971595   -3.1464778015   -1.1726365901
O       -1.5414881293    1.0693386027   -1.2096779422
Br       3.5537486157   -6.0046746347   -0.9309333588
H        3.2295109163    1.6536974506    0.7656328209
H        1.9103531204   -0.3493835478    1.4788868878
H        0.8767814778   -4.9931285543    0.4585878116
H        2.2824746129    3.2270591175   -0.8558337529
H        2.1909714676   -1.1772906626   -1.0815769788
H       -2.1725091404    0.1151331336    1.3395682207
H       -2.6031267813   -1.5029584477    0.7706778967
H       -2.2370653050   -0.8487251513   -1.5693930370
H       -3.4016424150    0.2372974396   -0.8082509287
