17   

C        5.9158521104    0.1245286055   -0.8427791848
C        4.6764425716   -0.6282312984   -1.0436197808
C        5.9741688244    1.0500047944    0.1689329231
C        3.5816452153   -0.4470019345   -0.2372720023
C        4.8146092756    1.2603979210    1.0111313057
C        2.2659951024   -1.1421536125   -0.4086026817
C        2.1075632305   -2.3280659597   -1.3497842735
N        3.6763777915    0.5186272398    0.7948159210
O        4.8242461978    2.0843599673    1.9084027352
O        1.2844112229   -0.7092932295    0.1842437942
H        6.7741295210   -0.0417734950   -1.4858066710
H        4.6406100911   -1.3400601193   -1.8607793657
H        6.8598143903    1.6392566837    0.3624001265
H        2.8164826864   -3.1141602406   -1.0769387486
H        2.2903110365   -2.0123242859   -2.3800315417
H        1.0919025478   -2.7272773786   -1.2764443751
H        2.8787423971    0.7381232591    1.3833151655
17   

C        5.9079747144    0.1528480762   -0.8595983038
C        4.6589055294   -0.5745044709   -1.0908287193
C        5.9890273643    1.0089950335    0.2099257958
C        3.5834660551   -0.4497416214   -0.2487894074
C        4.8432078020    1.1730587183    1.0809011976
C        2.2471792405   -1.0928431639   -0.4736933631
C        2.1024881940   -2.3407471057   -1.3332314734
N        3.6987490260    0.4483620215    0.8404132204
O        4.8687074257    1.9445893438    2.0233292865
O        1.2419971995   -0.5386245452   -0.0465966649
H        6.7539931658    0.0251104217   -1.5272153148
H        4.5971822234   -1.2172855946   -1.9618579404
H        6.8814239514    1.5797460889    0.4264499927
H        2.7448695460   -3.1339393251   -0.9417090068
H        2.3838019339   -2.1193494402   -2.3656402534
H        1.0646330364   -2.6854676081   -1.3153676521
H        2.9024989087    0.6663355433    1.4308883615
17   

C        5.8956778432    0.2012279777   -0.9323449184
C        4.6328663803   -0.5018082196   -1.1635495827
C        6.0321053644    0.9650129337    0.1996924124
C        3.6045282893   -0.4538555016   -0.2576512753
C        4.9292380961    1.0586993225    1.1343348164
C        2.2465296070   -1.0559567065   -0.4933323175
C        2.0801107455   -2.3589224252   -1.2641538864
N        3.7723249196    0.3541491759    0.8932924694
O        5.0007246529    1.7538767268    2.1321659702
O        1.2512824461   -0.4054407909   -0.2061265544
H        6.7073697558    0.1300841906   -1.6491921900
H        4.5223791817   -1.0566358728   -2.0881608703
H        6.9362956365    1.5157889009    0.4189982847
H        2.4656218565   -3.1878939704   -0.6647420589
H        2.6183469464   -2.3175081348   -2.2132896637
H        1.0206091487   -2.5351989837   -1.4706781090
H        3.0021144402    0.5467525010    1.5249703620
17   

C        5.8836029351    0.2582817948   -0.9781711252
C        4.6132479791   -0.4209492860   -1.2363174634
C        6.0403605101    0.9450816300    0.1999125770
C        3.6013425379   -0.4282471819   -0.3126142550
C        4.9507351869    0.9836511691    1.1544691868
C        2.2352875803   -1.0068648768   -0.5900788114
C        2.0829501581   -2.3860419419   -1.2178049396
N        3.7851198772    0.3038180790    0.8852621926
O        5.0406360875    1.6093985845    2.1957960417
O        1.2549137168   -0.2830536710   -0.5134046149
H        6.6840311091    0.2309571854   -1.7105198667
H        4.4775945208   -0.9081830605   -2.1955156152
H        6.9508705791    1.4757276100    0.4415697786
H        2.1350024457   -3.1464227499   -0.4341496194
H        2.8756349341   -2.5722784169   -1.9453171817
H        1.1154899126   -2.4614211625   -1.7220348377
H        3.0271711160    0.4674845221    1.5387346695
17   

C        5.8667963498    0.3797744422   -1.0421656750
C        4.5899982013   -0.2778304771   -1.3226331220
C        6.0452656673    0.9858816298    0.1765706105
C        3.5912782317   -0.3358162693   -0.3893739771
C        4.9707005692    0.9642578584    1.1489271461
C        2.2241240464   -0.9227172934   -0.6800819235
C        2.0872052565   -2.3889208105   -1.0620191520
N        3.7946226906    0.3145640509    0.8516372972
O        5.0829257511    1.5083069622    2.2330607216
O        1.2725267753   -0.1776292616   -0.8361910436
H        6.6554690345    0.3967849770   -1.7874553991
H        4.4330535896   -0.7154140872   -2.3028979446
H        6.9627021408    1.4942748127    0.4390033915
H        2.0415786070   -2.9963435165   -0.1543287347
H        2.9447296571   -2.7071554413   -1.6597176484
H        1.1718316733   -2.5416806189   -1.6403881905
H        3.0559938932    0.4288954666    1.5362785630
17   

C        5.8226429946    0.5267112441   -1.1289760837
C        4.5511075813   -0.1149899769   -1.4645072484
C        6.0047949266    1.0086877892    0.1435070742
C        3.5478537131   -0.2468975202   -0.5457813942
C        4.9392067604    0.8744908087    1.1166460209
C        2.2190782802   -0.9123643688   -0.8553202577
C        2.0182806942   -2.3859387503   -0.5403709851
N        3.7625095922    0.2562205088    0.7605477679
O        5.0612230518    1.2864762823    2.2564316104
O        1.2871430145   -0.2533364983   -1.2786800561
H        6.6064900724    0.6226365810   -1.8733913730
H        4.4000437855   -0.4877256403   -2.4723875469
H        6.9207764766    1.4943007134    0.4504443967
H        2.4318544145   -2.6153801685    0.4450774619
H        2.5294451177   -2.9925695687   -1.2923368003
H        0.9520792581   -2.6290700027   -0.5467883393
H        3.0419993060    0.2703937738    1.4728286128
17   

C        5.7974501949    0.6506520888   -1.1635235519
C        4.5367766902    0.0094347126   -1.5381775611
C        5.9881632913    1.0202683661    0.1447217588
C        3.5413465505   -0.2103252775   -0.6269185319
C        4.9418645333    0.7708680926    1.1158296206
C        2.2620803939   -0.9397178983   -0.9788140454
C        1.9375262952   -2.2635495329   -0.3017556168
N        3.7713773272    0.1649549110    0.7202596798
O        5.0751655963    1.0697876408    2.2890599917
O        1.3949635532   -0.3917246713   -1.6356852497
H        6.5680664722    0.8293668199   -1.9064988315
H        4.3862063389   -0.2948645198   -2.5691217236
H        6.8983900019    1.4962837651    0.4823025898
H        2.2958902131   -2.2635211092    0.7304494346
H        2.4260618270   -3.0759418334   -0.8461959944
H        0.8569901991   -2.4316409719   -0.3049070785
H        3.0721018966    0.0818950451    1.4484014644
17   

C        5.7613838086    0.7971997783   -1.1484610233
C        4.5144051611    0.1466355658   -1.5509756486
C        5.9762198260    1.0477476652    0.1842006940
C        3.5492855179   -0.1866642816   -0.6395001967
C        4.9682141861    0.6668783377    1.1535469085
C        2.3169975310   -0.9543562677   -1.0464371933
C        1.8921430959   -2.1857150945   -0.2586332530
N        3.8063340911    0.0616294065    0.7321997300
O        5.1269935503    0.8520050427    2.3468904456
O        1.5514733184   -0.5003881308   -1.8801609597
H        6.5041413890    1.0728323479   -1.8901851829
H        4.3485764116   -0.0744691368   -2.6009237191
H        6.8793035713    1.5221335719    0.5426206053
H        1.7520065801   -1.9334708510    0.7949377850
H        2.6625476961   -2.9566296178   -0.3452705964
H        0.9531436476   -2.5790100606   -0.6585226676
H        3.1428698023   -0.1355678718    1.4713382141
17   

C        5.7522482949    0.8922189599   -1.1352176586
C        4.5300369650    0.2111095919   -1.5620081477
C        5.9808321146    1.0607364490    0.2081123329
C        3.5998078717   -0.2308578743   -0.6592301219
C        5.0117735495    0.5645696876    1.1651439609
C        2.4004493313   -1.0193468075   -1.1057766625
C        1.8642643921   -2.1567943286   -0.2480465286
N        3.8709519850   -0.0650651672    0.7223851905
O        5.1850496465    0.6740811012    2.3657773690
O        1.7582558882   -0.6634972888   -2.0813397249
H        6.4662885708    1.2538384188   -1.8681561159
H        4.3548379986    0.0546261369   -2.6222558787
H        6.8673438474    1.5527924840    0.5836623556
H        1.4180411452   -1.7585949379    0.6663806409
H        2.6791765293   -2.8382975905    0.0108450602
H        1.1040733148   -2.7136202072   -0.8034162555
H        3.2407384594   -0.3591097528    1.4583055602
17   

C        5.7388564833    0.9568459374   -1.1176602169
C        4.5306667650    0.2565790621   -1.5532354355
C        6.0049269798    1.0442305414    0.2264702092
C        3.6525239341   -0.2904090779   -0.6549309504
C        5.0887193560    0.4446117001    1.1761547507
C        2.4539807443   -1.0677588776   -1.1180386673
C        1.8004855139   -2.1018765780   -0.2114647948
N        3.9606942815   -0.2028200026    0.7264077997
O        5.2935482015    0.4857816055    2.3761101826
O        1.9254363648   -0.7978429940   -2.1860423422
H        6.4128738749    1.3969561253   -1.8455472515
H        4.3259649735    0.1719684496   -2.6165006017
H        6.8827935685    1.5473594223    0.6075998061
H        1.3527137169   -1.6099948678    0.6555355487
H        2.5492167022   -2.8247353724    0.1236503639
H        1.0189130085   -2.6351233861   -0.7603294166
H        3.3723984489   -0.5784583303    1.4597905698
17   

C        5.7067602576    1.0081258547   -1.1239322960
C        4.5285726370    0.2636271177   -1.5683312255
C        5.9966863843    1.0499358680    0.2173452982
C        3.7054487251   -0.3787117590   -0.6805186374
C        5.1342519297    0.3600140357    1.1556992701
C        2.5197847827   -1.1718559100   -1.1493680730
C        1.7700936070   -2.0938134495   -0.1968875707
N        4.0334610437   -0.3276590816    0.6983744853
O        5.3584642046    0.3637685016    2.3528852192
O        2.1089247694   -1.0374983989   -2.2928067971
H        6.3400598198    1.5167448245   -1.8436946144
H        4.3054328340    0.2233276357   -2.6305161243
H        6.8541366983    1.5830139341    0.6041912013
H        1.3201850063   -1.5103872788    0.6103979412
H        2.4586248870   -2.8319889664    0.2228903611
H        0.9775383912   -2.6198754566   -0.7369210649
H        3.4866313196   -0.7728708449    1.4248331569
17   

C        5.6717645667    1.0639868748   -1.1340210522
C        4.5259456542    0.2763829557   -1.5887287339
C        5.9832866064    1.0694226665    0.2030782258
C        3.7611081864   -0.4517666124   -0.7150190569
C        5.1749327111    0.2996602937    1.1273708613
C        2.5868448279   -1.2571693550   -1.1917704492
C        1.7421274438   -2.0633438345   -0.2139985337
N        4.1046674722   -0.4287647513    0.6608391166
O        5.4152193206    0.2758496671    2.3212040232
O        2.2979993940   -1.2712463204   -2.3796747577
H        6.2640297096    1.6334474289   -1.8430738185
H        4.2820115421    0.2740339197   -2.6470954126
H        6.8181034743    1.6324856461    0.5968809530
H        1.2978108273   -1.3974644105    0.5303583907
H        2.3637061738   -2.8108477801    0.2857626756
H        0.9393074623   -2.5756258372   -0.7521274100
H        3.5985471801   -0.9344673742    1.3771265681
17   

C        5.6032440313    1.1133733945   -1.1463752475
C        4.4926711631    0.2748161843   -1.5973546048
C        5.9437642414    1.1025980577    0.1836735611
C        3.7972412227   -0.5256767852   -0.7290774165
C        5.1999605758    0.2661136398    1.1043629156
C        2.6353004122   -1.3529533395   -1.1978756225
C        1.7039738244   -2.0278624343   -0.1997276573
N        4.1628088414   -0.5106984279    0.6410702528
O        5.4626584951    0.2322516793    2.2932233978
O        2.4609359928   -1.5396935368   -2.3933267147
H        6.1464566694    1.7334592580   -1.8522292854
H        4.2182236351    0.2912810638   -2.6481042810
H        6.7541437051    1.7020657042    0.5747774975
H        1.2736630667   -1.2789737713    0.4704879486
H        2.2562926653   -2.7688177638    0.3837505982
H        0.8915975587   -2.5310386124   -0.7320563864
H        3.7051727649   -1.0663094060    1.3530019259
17   

C        6.2646324484   -0.1042235355   -0.0290562745
C        5.2016605974   -1.0996667743   -0.1668776868
C        5.9218058812    1.2224927912    0.0569987002
C        3.8791654531   -0.7420714901   -0.1881625351
C        4.5240707862    1.6032857400    0.0099160451
C        2.8031174041   -1.7669852026   -0.4035259428
C        1.4439518061   -1.3619585227   -0.9576061004
N        3.5532291557    0.6360901265   -0.1161152606
O        4.1763999295    2.7692041605    0.0673658489
O        2.9716906851   -2.9186865758   -0.0316716827
H        7.3052980320   -0.4106087985    0.0019435328
H        5.4707810208   -2.1484267145   -0.2521726171
H        6.6633446875    2.0028977575    0.1576785158
H        1.5749782854   -0.8266931908   -1.9019314815
H        0.9240845999   -0.7201625583   -0.2420863030
H        0.8374784896   -2.2536274694   -1.1408493163
H        2.6055459990    0.9922103814   -0.1270406255
17   

C        6.2553280396   -0.1198954240   -0.0979053580
C        5.1842672215   -1.1105400017   -0.2042676826
C        5.9202016276    1.2013263603    0.0671630423
C        3.8645757574   -0.7562803635   -0.1116008681
C        4.5227519151    1.5807219753    0.1331811024
C        2.7738708443   -1.7682767120   -0.3256359304
C        1.4847953743   -1.3727880185   -1.0319320279
N        3.5450878218    0.6170891849    0.0355406639
O        4.1810213303    2.7431582232    0.2576808652
O        2.8478610604   -2.8717291498    0.1917436240
H        7.2954629959   -0.4247910570   -0.1524837529
H        5.4427600345   -2.1540499880   -0.3578100119
H        6.6673377899    1.9786796271    0.1482149654
H        1.7203753415   -0.8775129519   -1.9778484945
H        0.9041396340   -0.6956250825   -0.4009451266
H        0.8881415563   -2.2651174755   -1.2420114425
H        2.5989200566    0.9690144668    0.1138050270
17   

C        6.2272844957   -0.1397055969   -0.1880396910
C        5.1392162191   -1.1153863634   -0.2540694984
C        5.9213879673    1.1763666702    0.0554779282
C        3.8350699803   -0.7546262144   -0.0481453543
C        4.5375591506    1.5645827534    0.2427813038
C        2.7100581202   -1.7427273109   -0.2256238851
C        1.4988304510   -1.3739920167   -1.0708122287
N        3.5444004579    0.6141757296    0.1780631102
O        4.2202293073    2.7237661143    0.4406381476
O        2.6670714108   -2.7597157670    0.4460183003
H        7.2568265714   -0.4509588975   -0.3328894543
H        5.3726998240   -2.1537732644   -0.4685823260
H        6.6814919898    1.9432565999    0.1119472381
H        1.8118543029   -1.2187394572   -2.1067904594
H        1.0360557542   -0.4592369003   -0.6935337882
H        0.7633824689   -2.1830678413   -1.0420986998
H        2.6123748754    0.9668910490    0.3578333289
17   

C        6.1992284719   -0.1559825634   -0.3372012551
C        5.0916882610   -1.1108512265   -0.3862459378
C        5.9370151967    1.1430965044    0.0208399537
C        3.8129150645   -0.7479914620   -0.0658629252
C        4.5790718317    1.5339016972    0.3423077034
C        2.6433006371   -1.7024542371   -0.1830686826
C        1.5192569832   -1.4027092912   -1.1643375915
N        3.5669469137    0.6034611884    0.2828716232
O        4.3002396200    2.6786290490    0.6512510313
O        2.4842602734   -2.5917580194    0.6338754262
H        7.2093638700   -0.4692115267   -0.5807420032
H        5.2924779049   -2.1364197659   -0.6795208742
H        6.7130205392    1.8941468662    0.0737987790
H        1.7918718730   -1.7841516386   -2.1518836842
H        1.3501990518   -0.3255544583   -1.2352289607
H        0.5959224768   -1.8886460278   -0.8370132574
H        2.6609075672    0.9457859065    0.5794847196
17   

C        6.1504561138   -0.1305793982   -0.4545318744
C        5.0176085293   -1.0558283334   -0.4961741938
C        5.9448318617    1.1465294025    0.0052425579
C        3.7670383238   -0.6799469887   -0.0927472970
C        4.6202940412    1.5441470598    0.4387957157
C        2.5672923993   -1.6092903455   -0.1280453662
C        1.6352216074   -1.5977698965   -1.3288976706
N        3.5813757785    0.6440393809    0.3744876455
O        4.3951385885    2.6679795052    0.8511508205
O        2.3018030336   -2.3047498404    0.8352369586
H        7.1360946909   -0.4490026085   -0.7784078892
H        5.1790252482   -2.0691556256   -0.8492837824
H        6.7424107048    1.8743553879    0.0617195999
H        2.1056175033   -2.1282509028   -2.1607992274
H        1.4315245035   -0.5674428223   -1.6317665657
H        0.6918892287   -2.0900051898   -1.0763759181
H        2.7072676478    0.9746159410    0.7660672459
17   

C        6.0831807837   -0.0515949415   -0.5977069903
C        4.9153904775   -0.9320337403   -0.6467508212
C        5.9518615982    1.1906262581   -0.0283308595
C        3.6942522182   -0.5328527904   -0.1762688428
C        4.6694947896    1.5967811626    0.5113320575
C        2.4901168763   -1.4522332948   -0.1241555236
C        1.9160492412   -2.0330519781   -1.4077011708
N        3.5919769441    0.7453348296    0.4239015693
O        4.5180314105    2.6826090939    1.0423353551
O        2.1296882091   -1.9088465759    0.9467050932
H        7.0387123350   -0.3778216755   -0.9955604228
H        5.0319130501   -1.9305914900   -1.0545924737
H        6.7797634248    1.8822577565    0.0441272578
H        2.7170332551   -2.2442365593   -2.1202195324
H        1.2247782961   -1.3128663286   -1.8531394962
H        1.3764910633   -2.9592818789   -1.1915119170
H        2.7590841326    1.0552741419    0.9113462307
17   

C        6.0148597034   -0.0062254708   -0.7115336091
C        4.8362524857   -0.8712264875   -0.7783134840
C        5.9152565802    1.2007259831   -0.0653636419
C        3.6299478674   -0.4837633315   -0.2568374593
C        4.6540318886    1.5879246455    0.5341199438
C        2.4285075552   -1.3949924198   -0.1932650926
C        1.9894043121   -2.1960968210   -1.4118010031
N        3.5623541869    0.7582263317    0.4195065187
O        4.5358667971    2.6361146830    1.1434964471
O        1.9368128236   -1.6581980057    0.8929816472
H        6.9555368618   -0.3182989838   -1.1536916009
H        4.9421881291   -1.8482782044   -1.2365770540
H        6.7539790436    1.8768235495    0.0265354304
H        2.8532236411   -2.5275583701   -1.9916742600
H        1.3559194896   -1.5699766678   -2.0455784430
H        1.4183970034   -3.0734115645   -1.0952899128
H        2.7488653990    1.0354852017    0.9577081636
17   

C        5.9795701716    0.0335276041   -0.7635399274
C        4.7850138696   -0.8075839255   -0.8528403173
C        5.9170699655    1.2002464592   -0.0435799941
C        3.5972790777   -0.4367718741   -0.2765392429
C        4.6777950369    1.5703900242    0.6089789399
C        2.3735758340   -1.3102375635   -0.2338681400
C        2.0197296567   -2.2359307952   -1.3903518905
N        3.5701819449    0.7660332480    0.4706134779
O        4.5938389567    2.5805231920    1.2847241263
O        1.7457838108   -1.4009038984    0.8119685009
H        6.9034974976   -0.2650479713   -1.2482942274
H        4.8666473295   -1.7513756604   -1.3796630546
H        6.7691414662    1.8565015658    0.0673792762
H        2.8798746017   -2.8459487034   -1.6737308855
H        1.6997802756   -1.6394928676   -2.2488400929
H        1.2016930241   -2.9000993912   -1.0971534861
H        2.7690154693    1.0218500703    1.0380882952
17   

C        5.9502683107    0.0838724533   -0.8286862860
C        4.7376686839   -0.7309315204   -0.9200157073
C        5.9388435987    1.2040503738   -0.0358307775
C        3.5838576038   -0.3849710869   -0.2639081742
C        4.7341206017    1.5530418640    0.6890544568
C        2.3375478922   -1.2189739994   -0.2410791133
C        2.0390604226   -2.2291958407   -1.3398727482
N        3.6094312338    0.7726164517    0.5518149308
O        4.6953425522    2.5239318528    1.4238664539
O        1.6022919691   -1.1609443702    0.7366537706
H        6.8472609559   -0.1968073063   -1.3712735718
H        4.7742014233   -1.6339724904   -1.5190751443
H        6.8060099852    1.8396980568    0.0781310851
H        2.7903361140   -3.0226649292   -1.3332321562
H        2.0449544939   -1.7287364836   -2.3117804078
H        1.0530396205   -2.6737849365   -1.1774074012
H        2.8240971124    1.0162107869    1.1468646380
17   

C        5.9213977936    0.1137335224   -0.8343031410
C        4.7104396486   -0.6967258578   -0.9751631210
C        5.9203719010    1.1604179846    0.0533136724
C        3.5717258454   -0.4260322904   -0.2598670717
C        4.7276711854    1.4388054365    0.8266529057
C        2.3128572554   -1.2359473146   -0.3117005409
C        2.0916834571   -2.2971039874   -1.3804998156
N        3.6075672182    0.6601336014    0.6487753751
O        4.6952641267    2.3488038696    1.6359432485
O        1.4661278265   -1.0745732063    0.5597979753
H        6.8083001921   -0.1112896691   -1.4178707408
H        4.7357776226   -1.5331508412   -1.6647211242
H        6.7858891227    1.7905696658    0.2043309866
H        2.8260183683   -3.0985135947   -1.2664867075
H        2.1903832378   -1.8490505430   -2.3727014277
H        1.0877155170   -2.7197949156   -1.2820427061
H        2.8155632292    0.8692103434    1.2485724973
17   

C        5.9368578221    0.0968570155   -0.8680473384
C        4.7048948049   -0.6775506742   -1.0288789046
C        5.9794922159    1.0878035214    0.0804132145
C        3.5948888381   -0.4396215293   -0.2587513919
C        4.8110673545    1.3443254710    0.8970162119
C        2.2999404417   -1.1843748567   -0.3600517874
C        2.1025308460   -2.3101231985   -1.3656439931
N        3.6753594618    0.5908653330    0.7100472363
O        4.8120256884    2.2155216225    1.7485603124
O        1.3782794544   -0.8762857794    0.3874910119
H        6.8036266330   -0.1080674523   -1.4881275277
H        4.6894799799   -1.4564335743   -1.7830818486
H        6.8606223821    1.6923883793    0.2450444297
H        2.8228711583   -3.1094856159   -1.1735855972
H        2.2407320703   -1.9291346236   -2.3807803031
H        1.0909881922   -2.7161814989   -1.2749201998
H        2.8848858325    0.8109928277    1.3080686197
