28   
Generated by ForceBalance from scan.xyz: Frame 1 of 17
C        0.2963656371    2.5723406156   -1.4828242816
C       -1.0978334670    2.6793609857   -1.4827283630
C        0.9257542402    1.4830518965   -0.8537295569
C       -1.8999911957    1.7099043190   -0.8578257996
C        0.1432792766    0.5171261157   -0.2366110231
C       -1.2562292138    0.6425092982   -0.2376889408
C        2.7817708537   -1.5101848334    0.2128205799
C        2.7788758692   -0.8160419625    1.3561562203
C       -0.8530041081   -1.3303248208    0.8748887998
C        1.3845874929   -1.7271459217   -0.3207488009
C        1.3797516195   -0.4452479720    1.7902989526
C        0.5194762807   -0.7363711637    0.5185857287
C       -3.2357813936   -0.8109599742    0.3704437706
N       -1.8330101830   -0.4473119899    0.4407583179
O       -1.0633056627   -2.3984014639    1.4332984951
H        0.8961549258    3.3340486099   -1.9731893343
H       -1.5729984502    3.5244071449   -1.9740117971
H        2.0092171438    1.3942697439   -0.8538161197
H       -2.9826263183    1.7970465944   -0.8621487788
H        3.6644090643   -1.9255616263   -0.2668119642
H        3.6587703500   -0.5809519476    1.9495298254
H        1.2905301865   -1.5272326355   -1.3930993685
H        1.0596485627   -2.7604812586   -0.1453553597
H        1.0553134707   -1.0782978344    2.6261684365
H        1.2808884493    0.5980071953    2.1069156219
H       -3.5531527804   -0.9188863060   -0.6734616176
H       -3.3592685031   -1.7621647441    0.8895573693
H       -3.8609544299   -0.0535293757    0.8548814800
28   
Generated by ForceBalance from scan.xyz: Frame 2 of 17
C        0.2727548071    2.5437624593   -1.4574808415
C       -1.1159041790    2.6970187544   -1.3878050055
C        0.8979812003    1.4452112271   -0.8425439616
C       -1.9138211043    1.7637268852   -0.7064628364
C        0.1166693624    0.5128607744   -0.1724508043
C       -1.2744891806    0.6861993420   -0.0986975431
C        2.7457819334   -1.5280692062    0.2910316229
C        2.7648957061   -0.8035917824    1.4152112993
C       -0.8789219752   -1.2953136238    0.9916471751
C        1.3399607582   -1.7457144780   -0.2189077717
C        1.3753317215   -0.4070761966    1.8567600277
C        0.4947859720   -0.7258989784    0.6039754281
C       -3.2190192729   -0.8560952321    0.3486227495
N       -1.8656240917   -0.3826036760    0.6111386061
O       -1.0920102922   -2.3768531489    1.5193964396
H        0.8704613346    3.2771149539   -1.9917274947
H       -1.5887570449    3.5488987953   -1.8694066754
H        1.9765617476    1.3204767627   -0.8960086401
H       -2.9923184120    1.8842426871   -0.6591512798
H        3.6182184052   -1.9641239925   -0.1889045947
H        3.6546142044   -0.5613910150    1.9908162096
H        1.2343363252   -1.5723594584   -1.2949129151
H        1.0071102985   -2.7707025823   -0.0131383960
H        1.0569980898   -1.0123199561    2.7153720838
H        1.2899699045    0.6456383588    2.1444969946
H       -3.3769399086   -0.9803163789   -0.7294439510
H       -3.3392672265   -1.8157248703    0.8520131660
H       -3.9628496520   -0.1543192476    0.7380971856
28   
Generated by ForceBalance from scan.xyz: Frame 3 of 17
C        0.2543992551    2.5611524062   -1.4686431900
C       -1.1235320749    2.7685349886   -1.3357769579
C        0.8648242977    1.4453720335   -0.8735800233
C       -1.9219387747    1.8691185756   -0.6129493863
C        0.0779452850    0.5446820925   -0.1645956850
C       -1.2988015352    0.7704910043   -0.0250779415
C        2.6849810466   -1.5287783616    0.3154757690
C        2.7343609496   -0.7695774173    1.4155065324
C       -0.9245368950   -1.2109955978    1.0616948267
C        1.2678209789   -1.7364192247   -0.1661966307
C        1.3597562432   -0.3326058582    1.8648384967
C        0.4524660892   -0.6776725436    0.6369226337
C       -3.1850555817   -0.8650222205    0.2322605109
N       -1.9200978949   -0.2835432815    0.6959903018
O       -1.1435705209   -2.2907112932    1.5863851730
H        0.8539926743    3.2682322100   -2.0353095546
H       -1.5854523134    3.6353902042   -1.8009679653
H        1.9350296665    1.2810274006   -0.9706351228
H       -2.9923640323    2.0289495932   -0.5192632182
H        3.5419534901   -1.9953755510   -0.1636411503
H        3.6370973239   -0.5257411966    1.9697394707
H        1.1489862030   -1.5928985376   -1.2453663213
H        0.9203862264   -2.7487211782    0.0743700329
H        1.0448821326   -0.9015543781    2.7492132705
H        1.2976324668    0.7307365822    2.1170920396
H       -3.1390489757   -1.0700923841   -0.8442725818
H       -3.3473596076   -1.7928800875    0.7801976981
H       -4.0198234302   -0.1872597433    0.4301858060
28   
Generated by ForceBalance from scan.xyz: Frame 4 of 17
C        0.2449557317    2.5603066120   -1.4824731303
C       -1.1216297841    2.8023100863   -1.2940147747
C        0.8493552528    1.4285821574   -0.9145981625
C       -1.9131538121    1.9174463583   -0.5476644494
C        0.0652545251    0.5403808624   -0.1842126945
C       -1.2981580877    0.7977857688    0.0088101038
C        2.6430372604   -1.5842409743    0.2325379160
C        2.7634991868   -0.7963888685    1.3065547562
C       -0.9209281936   -1.1591485075    1.1277526531
C        1.1997987628   -1.7698662327   -0.1752857060
C        1.4229015640   -0.3114539709    1.8063832029
C        0.4494445361   -0.6669402096    0.6350043618
C       -3.0582453147   -0.9644136470    0.0566227169
N       -1.9434454858   -0.2584096494    0.7205672344
O       -1.1284897543   -2.2088382502    1.7097714426
H        0.8406950225    3.2566796411   -2.0663457910
H       -1.5781229526    3.6851506225   -1.7337710748
H        1.9123439490    1.2426558608   -1.0461327683
H       -2.9748467232    2.1024568559   -0.4096298090
H        3.4643405283   -2.0859390033   -0.2728479264
H        3.6974424094   -0.5603283112    1.8101407141
H        1.0326109519   -1.6526271001   -1.2512773765
H        0.8419237239   -2.7666747303    0.1101281738
H        1.1362295024   -0.8464048159    2.7210787022
H        1.3994556891    0.7598890966    2.0297452638
H       -2.7710526540   -1.2730264666   -0.9564976830
H       -3.3090072769   -1.8392940276    0.6555557497
H       -3.9352217124   -0.3157917353   -0.0048137591
28   
Generated by ForceBalance from scan.xyz: Frame 5 of 17
C        0.1660539328    2.6220119258   -1.4735125392
C       -1.1944234199    2.8786324172   -1.2566878727
C        0.7729189161    1.4874412716   -0.9161534613
C       -1.9782725239    2.0007111104   -0.4953698077
C       -0.0077275294    0.6067160993   -0.1712313688
C       -1.3640667285    0.8744423596    0.0484580502
C        2.5243874107   -1.5885621014    0.1740704299
C        2.7305731059   -0.7719243808    1.2128761235
C       -0.9697720986   -1.0250432921    1.2477910685
C        1.0553538151   -1.7378349478   -0.1476271695
C        1.4366297966   -0.2256500741    1.7688036982
C        0.3873666500   -0.5836055903    0.6682554209
C       -2.9163125078   -1.0462839859   -0.0758440977
N       -2.0269608138   -0.1854666852    0.7497589237
O       -1.1531665743   -2.0046650151    1.9418145464
H        0.7566234713    3.3138573376   -2.0680560381
H       -1.6498013902    3.7675094500   -1.6853037957
H        1.8328613096    1.2953984826   -1.0630094082
H       -3.0353435607    2.1929295015   -0.3324994831
H        3.2988217521   -2.1343702508   -0.3587911555
H        3.6987409991   -0.5522691254    1.6555714780
H        0.8321710658   -1.6462721183   -1.2159922246
H        0.6845844260   -2.7146418513    0.1866866499
H        1.1839049104   -0.7205495863    2.7154083060
H        1.4612421575    0.8524787148    1.9565384360
H       -2.3895594454   -1.4213039840   -0.9635027376
H       -3.2517696246   -1.8802088555    0.5400759348
H       -3.7872344751   -0.4723086550   -0.4004238014
28   
Generated by ForceBalance from scan.xyz: Frame 6 of 17
C        0.1343099804    2.6310342825   -1.4215956134
C       -1.2158718421    2.9178688862   -1.1795557793
C        0.7251046572    1.4796132144   -0.8813280266
C       -2.0074930323    2.0488102516   -0.4154435169
C       -0.0634808614    0.6096692456   -0.1321405241
C       -1.4106132486    0.9053798780    0.1094148908
C        2.3935714167   -1.6901980003    0.1809214517
C        2.6759540860   -0.8516073243    1.1835640146
C       -1.0285950594   -0.9410442117    1.3770497529
C        0.9081208190   -1.7803390953   -0.0820037127
C        1.4310276854   -0.2289425552    1.7691156428
C        0.3229357783   -0.5733999356    0.7255398365
C       -2.7262231175   -1.1396538015   -0.1781438228
N       -2.1066289721   -0.1657176091    0.7751197685
O       -1.2032513570   -1.8214641706    2.1892682528
H        0.7312684210    3.3150141397   -2.0190473580
H       -1.6566716370    3.8213807693   -1.5925439837
H        1.7798340753    1.2697932269   -1.0411427721
H       -3.0587710573    2.2569535366   -0.2355577545
H        3.1210013571   -2.2877581945   -0.3625378503
H        3.6697895879   -0.6620836083    1.5809563039
H        0.6507171192   -1.7057192063   -1.1439573334
H        0.5083226107   -2.7322764738    0.2892740408
H        1.1940144084   -0.6796643341    2.7413541665
H        1.5118663674    0.8524604211    1.9182732768
H       -2.0036230550   -1.4939769938   -0.9257394656
H       -3.1151617407   -1.9804791708    0.3968036010
H       -3.5533032096   -0.6525302278   -0.7003495402
28   
Generated by ForceBalance from scan.xyz: Frame 7 of 17
C        0.1087812913    2.6315441287   -1.4365242363
C       -1.2100017558    2.9725661661   -1.1099007506
C        0.6788977842    1.4428744926   -0.9543069060
C       -1.9992140740    2.1144554893   -0.3284149934
C       -0.1043155084    0.5878205539   -0.1844740074
C       -1.4238228982    0.9370369501    0.1373130705
C        2.3467474703   -1.7347768180    0.1807517975
C        2.6499401257   -0.8501567549    1.1364456871
C       -1.0542214504   -0.8822661780    1.4166353781
C        0.8569567640   -1.8244662128   -0.0565661002
C        1.4177950536   -0.1940287797    1.7106855483
C        0.2894915114   -0.5792635290    0.7006682106
C       -2.5421483319   -1.1908583862   -0.2702973938
N       -2.1536926727   -0.1548650196    0.7500294708
O       -1.2103163250   -1.6673359982    2.3203651605
H        0.7020069226    3.3043021314   -2.0503742078
H       -1.6311869224    3.9050764620   -1.4763052443
H        1.7168712517    1.2000367549   -1.1681634981
H       -3.0335437451    2.3521698359   -0.0958292080
H        3.0612859128   -2.3628666727   -0.3450768668
H        3.6510472128   -0.6469666143    1.5079386516
H        0.5900094522   -1.7972497560   -1.1183997671
H        0.4556321658   -2.7574834815    0.3593057166
H        1.1926571911   -0.6005786251    2.7048672060
H        1.5063965558    0.8921516172    1.8112897055
H       -1.7045382472   -1.4869782576   -0.9126800864
H       -2.9382415604   -2.0579090692    0.2602760990
H       -3.3280376355   -0.7754580343   -0.9070135109
28   
Generated by ForceBalance from scan.xyz: Frame 8 of 17
C        0.0799930253    2.6350278914   -1.4250024920
C       -1.1939608610    3.0345204365   -1.0041208401
C        0.6099251980    1.3957617532   -1.0270657590
C       -1.9930085740    2.1797887242   -0.2257948834
C       -0.1818101039    0.5500462804   -0.2587307064
C       -1.4616807553    0.9535639098    0.1551885002
C        2.2761378168   -1.7853749448    0.2345607269
C        2.5685944975   -0.8500200737    1.1438280290
C       -1.1415894251   -0.8502939969    1.4145720376
C        0.7905822305   -1.8796816523   -0.0243119525
C        1.3304390754   -0.1627823701    1.6634291002
C        0.2097783466   -0.6025201067    0.6631575731
C       -2.4489549228   -1.2424026126   -0.3450103175
N       -2.2490080339   -0.1524751346    0.6833885389
O       -1.2907681839   -1.5507221094    2.3829636668
H        0.6762546244    3.3030352922   -2.0411702905
H       -1.5792456016    4.0057526085   -1.3032994921
H        1.6254226556    1.1149018701   -1.2957823741
H       -3.0044091275    2.4542553554    0.0604004374
H        2.9955682996   -2.4436031229   -0.2457796338
H        3.5648881271   -0.6279882633    1.5174983241
H        0.5507771055   -1.8990780320   -1.0928623360
H        0.3769178808   -2.7947949898    0.4187733261
H        1.0926674665   -0.5144508825    2.6753451144
H        1.4195444546    0.9269289021    1.7069906228
H       -1.5507147591   -1.4755301799   -0.9210512908
H       -2.8127710848   -2.1295236298    0.1756753920
H       -3.2194170870   -0.9120894349   -1.0490704733
28   
Generated by ForceBalance from scan.xyz: Frame 9 of 17
C        0.0825362394    2.5460190605   -1.5783501018
C       -1.1655304033    2.3615673897   -2.1849837395
C        0.6009228812    1.5806185514   -0.6984412274
C       -1.9520563174    1.2375844348   -1.8802318588
C       -0.1784927938    0.4699944529   -0.3960375220
C       -1.4326527510    0.2934491733   -1.0027845200
C        2.5934193442   -1.3909586358    0.1918073211
C        2.2464258777   -1.0968549870    1.4489014271
C       -1.1028028624   -1.7054178347   -0.0873015735
C        1.3910156705   -1.5117245109   -0.7109399754
C        0.7503555761   -0.9558785194    1.6060094851
C        0.2236595907   -0.9036313978    0.1359909694
C       -2.4848605506   -0.4254153812    1.1003781681
N       -2.2224245468   -0.7445137107   -0.3538687087
O       -1.2295052356   -2.8990015300    0.0124070204
H        0.6687343260    3.4305926302   -1.8135665795
H       -1.5413091089    3.1079402051   -2.8799390452
H        1.5991485307    1.6896137201   -0.2813162242
H       -2.9456534304    1.1104019023   -2.3006610538
H        3.6078258134   -1.5757451011   -0.1522323640
H        2.9327220326   -1.0063535331    2.2869812198
H        1.5048645830   -0.9882209180   -1.6650321520
H        1.1848770986   -2.5657368676   -0.9362068142
H        0.3346656056   -1.8146112755    2.1488309331
H        0.4693233771   -0.0541240595    2.1605755350
H       -3.2746054908    0.3311860922    1.1480998950
H       -2.8471834069   -1.3352884375    1.5813272199
H       -1.6145752997   -0.0308079706    1.6294291182
28   
Generated by ForceBalance from scan.xyz: Frame 10 of 17
C        0.1108158922    2.5547344893   -1.5683097779
C       -1.1868732442    2.4202189871   -2.0782884321
C        0.6736623609    1.5438663197   -0.7734185173
C       -1.9635398341    1.2920096225   -1.7719226092
C       -0.0974056263    0.4273593922   -0.4634962440
C       -1.3958410028    0.3011722258   -0.9780401188
C        2.6743791812   -1.3829573261    0.1988360722
C        2.3159351764   -1.0232577272    1.4357533630
C       -1.0161337030   -1.7216399726   -0.0576496166
C        1.4794309553   -1.5663766520   -0.7049872898
C        0.8165600692   -0.8984711653    1.5776775390
C        0.3052158419   -0.9221386437    0.0998725859
C       -2.5740388927   -0.4650714187    1.0142954480
N       -2.1246999909   -0.8007928912   -0.3823655357
O       -1.1540498236   -2.9032969814    0.1475116448
H        0.6941779076    3.4396911725   -1.8088746158
H       -1.6018857569    3.2036349862   -2.7069766802
H        1.6972441032    1.6257866394   -0.4161148784
H       -2.9828688930    1.1914700248   -2.1342793699
H        3.6931127943   -1.5754479258   -0.1277206790
H        2.9962235954   -0.8784147008    2.2710891190
H        1.5949238990   -1.0936095815   -1.6852488566
H        1.2840521551   -2.6330298989   -0.8736472129
H        0.4117390821   -1.7427652793    2.1502331463
H        0.5096724513    0.0208210723    2.0877907260
H       -3.3748223857    0.2770096177    0.9538880254
H       -2.9677804216   -1.3738389079    1.4717714569
H       -1.7682351875   -0.0471242120    1.6290571808
28   
Generated by ForceBalance from scan.xyz: Frame 11 of 17
C        0.1368799603    2.5422612265   -1.5745812080
C       -1.1965993851    2.4518528865   -1.9958939593
C        0.7233874620    1.5011023727   -0.8406223400
C       -1.9765551646    1.3328766922   -1.6713055506
C       -0.0541348283    0.3945561651   -0.5075200926
C       -1.3843991853    0.3091690164   -0.9360858338
C        2.7021361870   -1.4234980735    0.1769455544
C        2.3636937764   -0.9994382798    1.3991952970
C       -0.9932833480   -1.7172535186    0.0140092149
C        1.4941739217   -1.6341273050   -0.7044621716
C        0.8676517328   -0.8528699882    1.5547449182
C        0.3397284854   -0.9397375890    0.0833335028
C       -2.7532704600   -0.5220346874    0.9162017064
N       -2.0769345063   -0.8268602296   -0.3841086606
O       -1.1552824885   -2.8696965809    0.3471345609
H        0.7248466041    3.4189768193   -1.8330393142
H       -1.6336386154    3.2599433243   -2.5765700945
H        1.7664971003    1.5539382196   -0.5387143253
H       -3.0154809497    1.2620349470   -1.9819210459
H        3.7143119318   -1.6453611453   -0.1514190878
H        3.0568327508   -0.8234979077    2.2178442130
H        1.6036734491   -1.2056766122   -1.7057889042
H        1.2851704490   -2.7048774244   -0.8244024988
H        0.4622637643   -1.6685808394    2.1664192525
H        0.5712682889    0.0910368435    2.0246009913
H       -3.5892668881    0.1576713405    0.7341064554
H       -3.1376113288   -1.4552885088    1.3286872667
H       -2.0676279974   -0.0462384332    1.6304201820
28   
Generated by ForceBalance from scan.xyz: Frame 12 of 17
C        0.1664878527    2.5827244336   -1.5391097064
C       -1.1788887676    2.4983723074   -1.9219928407
C        0.7700587302    1.5359227062   -0.8277012030
C       -1.9514080915    1.3774726076   -1.5879596069
C        0.0000057469    0.4277494222   -0.4828144801
C       -1.3409144199    0.3466752247   -0.8764775373
C        2.7595886323   -1.4067836634    0.0957049678
C        2.4960439445   -0.9387834829    1.3204719895
C       -0.9413813133   -1.6481868341    0.1544621678
C        1.4997982372   -1.6321405999   -0.7067400933
C        1.0129330765   -0.7715970795    1.5576085595
C        0.4015952088   -0.8944662056    0.1239971356
C       -2.9372959316   -0.5660714692    0.7765329410
N       -1.9988253247   -0.8134475770   -0.3511714776
O       -1.1187851508   -2.7503290667    0.6327352614
H        0.7484065854    3.4607888669   -1.8060849164
H       -1.6313416538    3.3120448429   -2.4827155634
H        1.8192500940    1.5868527433   -0.5474670928
H       -2.9971081835    1.3129397741   -1.8764328230
H        3.7485271725   -1.6526487117   -0.2826367431
H        3.2376011274   -0.7443966620    2.0911135448
H        1.5545634581   -1.2396914324   -1.7271272417
H        1.2731233483   -2.7038878581   -0.7762777083
H        0.6345399349   -1.5676845500    2.2106375208
H        0.7509067986    0.1872768674    2.0175151684
H       -3.8075988306   -0.0122423988    0.4171456464
H       -3.2665969049   -1.5297523700    1.1641089651
H       -2.4530324485    0.0148785734    1.5727992838
28   
Generated by ForceBalance from scan.xyz: Frame 13 of 17
C        0.2458248467    2.5591361942   -1.4790376603
C       -1.1073559807    2.4922668696   -1.8342332486
C        0.8467487227    1.5045648731   -0.7753309577
C       -1.8891256573    1.3813114692   -1.4862645407
C        0.0714467692    0.4059146054   -0.4159036627
C       -1.2779816218    0.3427526261   -0.7866953354
C        2.7951803206   -1.5000373035    0.0721692281
C        2.6164006758   -0.9850509256    1.2934615043
C       -0.9001691091   -1.6134725213    0.3328317798
C        1.4859059121   -1.7095911997   -0.6517166393
C        1.1547274030   -0.7618961591    1.6056965351
C        0.4604602656   -0.9078852876    0.2155835400
C       -3.0717944949   -0.6412508835    0.6347033659
N       -1.9180975635   -0.8237744821   -0.2692490994
O       -1.1074784217   -2.6566988590    0.9265041476
H        0.8338587912    3.4299530669   -1.7558784600
H       -1.5610269318    3.3124882615   -2.3843180636
H        1.8998704534    1.5445577212   -0.5085681964
H       -2.9407073770    1.3351777020   -1.7555812266
H        3.7527941595   -1.7907196695   -0.3521464598
H        3.4063970914   -0.7907231609    2.0144354852
H        1.4945332118   -1.3521865356   -1.6863112059
H        1.2229051178   -2.7751480236   -0.6718767378
H        0.7864423518   -1.5259996161    2.3011867382
H        0.9487845948    0.2178753474    2.0496675713
H       -3.9373032990   -0.2762206095    0.0767916050
H       -3.3170277799   -1.6094781874    1.0699794207
H       -2.8305011867    0.0766779907    1.4287683801
28   
Generated by ForceBalance from scan.xyz: Frame 14 of 17
C        0.2549979077    2.5482743071   -1.4852045092
C       -1.1120334185    2.5102378898   -1.7837334694
C        0.8635283644    1.4787674732   -0.8087823949
C       -1.9015330746    1.4113147680   -1.4122510937
C        0.0850535820    0.3912811839   -0.4287555676
C       -1.2801469241    0.3570942277   -0.7464768198
C        2.7712454332   -1.5808026626   -0.0085575118
C        2.6631362178   -1.0269838636    1.2040811277
C       -0.9073983972   -1.5833016216    0.4127138102
C        1.4243469528   -1.7723337004   -0.6654977260
C        1.2246031568   -0.7508257498    1.5752382553
C        0.4635346516   -0.9152145426    0.2245390405
C       -3.1900473930   -0.7428573920    0.4537962708
N       -1.8959879717   -0.8156122391   -0.2342244243
O       -1.1293144767   -2.5919158253    1.0627340933
H        0.8474892847    3.4103301518   -1.7791544638
H       -1.5726398216    3.3438833804   -2.3072587268
H        1.9253993806    1.5012072450   -0.5770414565
H       -2.9638871606    1.3894589694   -1.6382289507
H        3.6995481317   -1.9117420684   -0.4671625939
H        3.4909422402   -0.8362402888    1.8823135459
H        1.3946897782   -1.4450444464   -1.7096176003
H        1.1314066308   -2.8299722954   -0.6417357843
H        0.8649179197   -1.4838642838    2.3077723619
H        1.0677256612    0.2464504186    1.9996967786
H       -4.0017012982   -0.5834784449   -0.2611912895
H       -3.3513255934   -1.6922288282    0.9638645359
H       -3.1895889405    0.0772368598    1.1822003467
28   
Generated by ForceBalance from scan.xyz: Frame 15 of 17
C        0.2741926022    2.5322528701   -1.4764726601
C       -1.1072178655    2.5212088773   -1.6962887006
C        0.8978519806    1.4545097772   -0.8243132160
C       -1.8991048983    1.4410574523   -1.2741927674
C        0.1216535007    0.3851061857   -0.3967616902
C       -1.2616510555    0.3803013433   -0.6358437265
C        2.7990787728   -1.5954598283    0.0216759472
C        2.7212321635   -1.0022759491    1.2179489518
C       -0.8680365133   -1.5629604387    0.5218265780
C        1.4361612368   -1.8011946859   -0.5973639489
C        1.2927038181   -0.7063706908    1.6122327336
C        0.5018115216   -0.9082501023    0.2837034898
C       -3.2209505308   -0.8359579517    0.3848244625
N       -1.8485608746   -0.7896803806   -0.1044002931
O       -1.0839918107   -2.5750069797    1.1721215516
H        0.8671577037    3.3794171396   -1.8099178830
H       -1.5792941483    3.3612066245   -2.1990594085
H        1.9706818026    1.4590744580   -0.6488153364
H       -2.9721435442    1.4396163393   -1.4429149800
H        3.7151317910   -1.9461721073   -0.4467718430
H        3.5650616231   -0.7950243327    1.8710978775
H        1.3845454075   -1.5104250162   -1.6514348484
H        1.1376374995   -2.8552707820   -0.5291438100
H        0.9458131336   -1.4155247943    2.3741388413
H        1.1500603159    0.3038264083    2.0099308554
H       -3.9340896547   -0.8251776213   -0.4451075867
H       -3.3432792243   -1.7631546279    0.9452150578
H       -3.4220173698    0.0215915382    1.0381248439
28   
Generated by ForceBalance from scan.xyz: Frame 16 of 17
C        0.2964842415    2.5717122814   -1.4854285204
C       -1.0940237102    2.5965625762   -1.6306622170
C        0.9258626633    1.4870348425   -0.8483790006
C       -1.8922110290    1.5455550240   -1.1488942797
C        0.1469744984    0.4450680889   -0.3649356836
C       -1.2485182371    0.4799925908   -0.5255760881
C        2.8122451040   -1.5480538666    0.0664592230
C        2.7558156638   -0.9217653464    1.2469844916
C       -0.8460252478   -1.4768401153    0.6149580469
C        1.4391404504   -1.7612923958   -0.5274122000
C        1.3348763939   -0.6050993418    1.6525412570
C        0.5244820940   -0.8372476248    0.3394494027
C       -3.2346037260   -0.8300026255    0.3349922877
N       -1.8225652556   -0.6735748827    0.0405877965
O       -1.0581451338   -2.5073762805    1.2393357514
H        0.8934895724    3.3960901946   -1.8654055364
H       -1.5692461090    3.4412165358   -2.1225765200
H        2.0063681819    1.4651695293   -0.7308967376
H       -2.9721066182    1.5704887013   -1.2625261926
H        3.7191885572   -1.9180160226   -0.4048913041
H        3.6101126095   -0.7033866087    1.8826795829
H        1.3753089934   -1.5009951085   -1.5888204350
H        1.1332910989   -2.8102882657   -0.4236839828
H        0.9943874229   -1.2920405106    2.4375858565
H        1.2041258590    0.4159747524    2.0254394617
H       -3.8240817205   -0.8725768943   -0.5869304941
H       -3.3586686387   -1.7650427103    0.8825432604
H       -3.5943770657    0.0045235690    0.9484089532
28   
Generated by ForceBalance from scan.xyz: Frame 17 of 17
C        0.3632357396    2.5838602802   -1.4904692647
C       -1.0309267773    2.6563028441   -1.5666698161
C        0.9851753933    1.4935743960   -0.8550184733
C       -1.8414669818    1.6497861552   -1.0149167441
C        0.1955422629    0.4935494070   -0.3058372651
C       -1.2047168068    0.5805790524   -0.3908854495
C        2.8333119473   -1.5317603216    0.1415687225
C        2.8035651830   -0.8719961542    1.3046872905
C       -0.8150609742   -1.3888054728    0.7362842199
C        1.4485200968   -1.7400452725   -0.4266764364
C        1.3934791641   -0.5221486351    1.7208554994
C        0.5612437768   -0.7778615721    0.4247305415
C       -3.2084151426   -0.7866789786    0.3344775837
N       -1.7852509268   -0.5388143556    0.2299505897
O       -1.0327085374   -2.4388234428    1.3263060866
H        0.9692181878    3.3741784355   -1.9247096884
H       -1.4998873135    3.5035174913   -2.0601767672
H        2.0688563866    1.4333524076   -0.7936438105
H       -2.9240699304    1.7109153857   -1.0772079415
H        3.7277183030   -1.9284736185   -0.3319937592
H        3.6700223676   -0.6497200016    1.9223063675
H        1.3742452047   -1.5095336070   -1.4943330876
H        1.1268529887   -2.7800940876   -0.2877932872
H        1.0547324872   -1.1826602861    2.5292069432
H        1.2827874380    0.5103330229    2.0676723742
H       -3.6632950991   -0.8623719698   -0.6596472668
H       -3.3438905877   -1.7293494253    0.8663103538
H       -3.7026288520    0.0179394231    0.8905692880
