29   

C        3.1035496182   -1.2030968108    1.7475705293
C        1.4079857013   -1.6013332223    0.0825178352
C        2.2007768816   -0.4185021080    2.4745353775
C        0.5115922111   -0.8143638279    0.8157976291
C        8.7011476306   -4.7640257990    2.0407697328
C        2.7327594007   -1.8046142647    0.5267251272
C        0.8987776471   -0.2138691727    2.0150382707
C        8.7466790633   -5.3529804664    0.8054075072
C        6.8423410093   -4.2582407292    0.5614494841
C        3.7024165726   -2.6399621917   -0.2168134320
C        9.8406261127   -6.2867890532    0.3897896991
C        3.4692370824   -3.0192585591   -1.6609711313
N        7.6780267287   -5.0664424447   -0.0336031708
N        4.7734732292   -3.0537591230    0.4302873331
N        5.7141734919   -3.8618092615   -0.1434067053
S        7.2733287898   -3.7784740378    2.1997646939
Cl      -0.2247740022    0.7657886956    2.9245110293
H        4.1045736048   -1.3339681956    2.1460005126
H        1.0381599220   -2.0598780051   -0.8257077804
H        2.5128891347    0.0364859206    3.4073168854
H       -0.5005958427   -0.6699770415    0.4562830207
H        9.4445810647   -4.8965951713    2.8161784522
H        9.4313295022   -7.0837233846   -0.2375046301
H       10.5956235015   -5.7385582597   -0.1801828634
H       10.3119948647   -6.7370813795    1.2679547633
H        4.3810094097   -2.8548982112   -2.2424610276
H        3.1985371714   -4.0769855772   -1.7260182583
H        2.6859196855   -2.4183096603   -2.1255168773
H        5.6486835359   -4.2411163534   -1.0824439619
29   

C        3.1284952971   -1.0459908113    1.6552812826
C        1.3562790931   -1.7968235608    0.2030567567
C        2.2088154513   -0.2718037955    2.3723926577
C        0.4421352964   -1.0195544037    0.9246327197
C        8.6436317903   -4.8742105607    2.0744783287
C        2.7207557983   -1.8210723467    0.5526514399
C        0.8588698882   -0.2494532114    2.0133746666
C        8.7231430589   -5.3891816822    0.8081845003
C        6.8291242113   -4.2742393886    0.5756184400
C        3.7068963046   -2.6279424336   -0.1996191748
C        9.8251691565   -6.3029503341    0.3699434683
C        3.5191343883   -2.9059614776   -1.6734895488
N        7.6799126274   -5.0486642606   -0.0425359752
N        4.7598734415   -3.0681352680    0.4572481845
N        5.7219672340   -3.8349015966   -0.1369955966
S        7.2144221860   -3.8935833209    2.2508131133
Cl      -0.2857803081    0.7178095757    2.9097045875
H        4.1697156323   -1.0402667480    1.9617292288
H        0.9854165652   -2.3917352787   -0.6233133048
H        2.5442141047    0.3178385799    3.2175649853
H       -0.6044045152   -1.0137930838    0.6430251696
H        9.3636644520   -5.0562823579    2.8618237149
H        9.4329184091   -7.0542702242   -0.3212939752
H       10.6025951127   -5.7252237280   -0.1372669322
H       10.2632505096   -6.8130863683    1.2324843110
H        4.4213827572   -2.6235868186   -2.2237576254
H        3.3315402427   -3.9722434342   -1.8288423904
H        2.6866582359   -2.3324931723   -2.0877615032
H        5.6849133071   -4.1576159206   -1.0984948012
29   

C        3.1969415057   -0.8544876347    1.5023057106
C        1.4078925603   -1.9161972406    0.2815211756
C        2.2613741252   -0.0659298470    2.1824836722
C        0.4768873401   -1.1242359326    0.9645251035
C        8.6231727405   -4.9725981210    2.1612898529
C        2.7840038695   -1.7956411955    0.5432406672
C        0.8940486801   -0.1926367017    1.9199656703
C        8.7522225229   -5.4193761139    0.8733858303
C        6.8675110209   -4.2915621866    0.6275061937
C        3.7850856355   -2.6001014474   -0.1946948177
C        9.8712261630   -6.3098048176    0.4301114005
C        3.6586278056   -2.7858355416   -1.6899542826
N        7.7423674035   -5.0328645405    0.0023265880
N        4.8057071293   -3.0736406032    0.4870566075
N        5.7893684151   -3.8142830353   -0.1048536251
S        7.1873271288   -4.0010092473    2.3341181126
Cl      -0.2706557765    0.7934873550    2.7686210687
H        4.2532657815   -0.7379671230    1.7227073040
H        1.0528322241   -2.6333130912   -0.4500914364
H        2.5968602845    0.6517677636    2.9219639997
H       -0.5812544638   -1.2305020767    0.7557247147
H        9.3121851823   -5.1973368944    2.9651852862
H        9.5088034686   -7.0171814783   -0.3211741143
H       10.6709793446   -5.7060364491   -0.0072527051
H       10.2702255118   -6.8720143061    1.2791353505
H        4.5608873372   -2.4199352820   -2.1885490716
H        3.5312405461   -3.8466786654   -1.9236328657
H        2.8025911422   -2.2306368189   -2.0826790076
H        5.7932526046   -4.0844110779   -1.0831395240
29   

C        3.1945945422   -0.6967485437    1.3754722603
C        1.4337053071   -2.0636745183    0.4539556307
C        2.2396955912    0.0800626894    2.0423731200
C        0.4823108881   -1.2832823849    1.1220683085
C        8.5778625851   -5.1013472050    2.1806325022
C        2.8039912446   -1.7845038453    0.5790956423
C        0.8758233365   -0.2054278515    1.9218815910
C        8.7384356882   -5.4748797140    0.8731169594
C        6.8689939450   -4.3187495830    0.6424767595
C        3.8199422704   -2.5680245209   -0.1687465865
C        9.8619943611   -6.3490913268    0.4095460871
C        3.7329049996   -2.6503882328   -1.6765113982
N        7.7553461227   -5.0303121472   -0.0008634472
N        4.8167179246   -3.0829875219    0.5157790806
N        5.8141695369   -3.7927530285   -0.0904907339
S        7.1447489864   -4.1289677613    2.3707565561
Cl      -0.3136783062    0.7671409839    2.7515608072
H        4.2486194413   -0.4604100554    1.4792014916
H        1.1049310517   -2.8927673152   -0.1628729929
H        2.5563639618    0.9127763161    2.6594474041
H       -0.5724413188   -1.5112223381    1.0216713064
H        9.2430888874   -5.3777901707    2.9884271450
H        9.5147653676   -7.0081967282   -0.3911924557
H       10.6786166521   -5.7289879808    0.0300603332
H       10.2324396778   -6.9634803648    1.2350311319
H        4.6324713560   -2.2201014525   -2.1260676050
H        3.6455451222   -3.6949500778   -1.9885860689
H        2.8626629581   -2.0980523799   -2.0422914154
H        5.8448966179   -4.0054285163   -1.0823856141
29   

C        3.1355292131   -0.5266297060    1.1914526255
C        1.5028355201   -2.2170845538    0.6483869897
C        2.1473531146    0.2123619329    1.8530677126
C        0.5172781838   -1.4743815851    1.3098873718
C        8.5116122983   -5.2309640255    2.1987224201
C        2.8251535144   -1.7529678542    0.5870476221
C        0.8298611267   -0.2536300753    1.9174787770
C        8.7126524290   -5.5312249459    0.8780083674
C        6.8658769613   -4.3383459466    0.6516529976
C        3.8697234008   -2.5044761948   -0.1649324797
C        9.8411433012   -6.3928081335    0.4028962500
C        3.8223741245   -2.5064553167   -1.6770567680
N        7.7654181181   -5.0240438397   -0.0014724230
N        4.8335795756   -3.0695581168    0.5252593396
N        5.8432980599   -3.7575821489   -0.0856800381
S        7.0841611933   -4.2517724135    2.3962717915
Cl      -0.4022184488    0.6723826850    2.7382342619
H        4.1527184832   -0.1516533679    1.1498596746
H        1.2405524941   -3.1595605589    0.1803634044
H        2.4008337913    1.1561819022    2.3215015925
H       -0.5007482730   -1.8434400940    1.3539334512
H        9.1454413619   -5.5620201624    3.0112048062
H        9.5135305577   -7.0011758411   -0.4448811656
H       10.6770840727   -5.7632514562    0.0862463493
H       10.1766020327   -7.0575198118    1.2039946966
H        4.7277976359   -2.0430474473   -2.0793376831
H        3.7544387720   -3.5332790043   -2.0473563478
H        2.9529756830   -1.9450645114   -2.0314175946
H        5.9071905174   -3.9131649997   -1.0865469076
29   

C        3.0034815596   -0.3343971224    0.9185717896
C        1.6777433478   -2.3479598494    0.8601861170
C        1.9672455267    0.3257526832    1.5902099893
C        0.6433429161   -1.6843968750    1.5310009389
C        8.3997242707   -5.3778075585    2.2277026870
C        2.8677903795   -1.6776422547    0.5427311068
C        0.7773735047   -0.3416769139    1.8999811269
C        8.6546548946   -5.6113837225    0.9028119356
C        6.8639267057   -4.3390757962    0.6589592398
C        3.9649478917   -2.3725855586   -0.1962605202
C        9.7746845051   -6.4862539643    0.4318852382
C        3.9609854567   -2.3338121619   -1.7087062093
N        7.7698193402   -5.0208545088    0.0104674411
N        4.8802758388   -2.9972982392    0.5077732370
N        5.8995285987   -3.6812546614   -0.0919055667
S        6.9988790694   -4.3587209921    2.4139670104
Cl      -0.5153692217    0.4850333881    2.7333671184
H        3.9211597427    0.1968351953    0.6903447378
H        1.5593969177   -3.3904272852    0.5851827333
H        2.0834887793    1.3643727620    1.8769916844
H       -0.2723360772   -2.2121749285    1.7707447850
H        8.9814726829   -5.7765340835    3.0487065618
H        9.4621299458   -7.0462199182   -0.4540695512
H       10.6404739284   -5.8698568630    0.1752380363
H       10.0592996896   -7.1956913586    1.2140803219
H        4.8804475276   -1.8662524355   -2.0723722415
H        3.8967249231   -3.3497352148   -2.1086493747
H        3.1047789725   -1.7573967157   -2.0711125737
H        6.0067074528   -3.7858890328   -1.0956919936
29   

C        2.9266190872   -0.2049464314    0.7402586567
C        1.8859629589   -2.3430546487    1.1392081605
C        1.9077812157    0.4235690076    1.4667485725
C        0.8692083413   -1.7112272470    1.8651145262
C        8.1388522981   -5.7355473257    2.1608232269
C        2.9194927134   -1.5953817800    0.5557691179
C        0.8685566013   -0.3225780597    2.0325022467
C        8.5391119682   -5.7570133819    0.8515613105
C        6.7708815215   -4.4517345428    0.6182624949
C        4.0163370746   -2.2703719942   -0.1956486169
C        9.7657290459   -6.4798717224    0.3885464524
C        4.0553815740   -2.1532705588   -1.7033692952
N        7.7574844801   -5.0162763247   -0.0250507239
N        4.8639860731   -3.0025842306    0.4900685145
N        5.8880261815   -3.6726489667   -0.1168410600
S        6.7053315401   -4.7636349560    2.3495836355
Cl      -0.4004321661    0.4637948303    2.9382966931
H        3.7301513363    0.3898517540    0.3199824599
H        1.8806083836   -3.4225315559    1.0313881650
H        1.9218532845    1.4989833329    1.6000644976
H        0.0754591576   -2.3006820497    2.3089368973
H        8.6459412711   -6.2440819238    2.9705902942
H        9.4908874328   -7.4703696504    0.0160244108
H       10.2468856834   -5.9181570120   -0.4171336330
H       10.4762143869   -6.5914441602    1.2125034994
H        5.0054284255   -1.7134480842   -2.0197197415
H        3.9535844155   -3.1432168997   -2.1572539093
H        3.2374658881   -1.5184860024   -2.0563953530
H        6.0915741307   -3.6308858209   -1.1102345955
29   

C        2.7504928152   -0.1970145339    0.5370552073
C        2.0533292959   -2.3673974516    1.3235001476
C        1.7120510671    0.3967572485    1.2650303554
C        1.0169697678   -1.7694792449    2.0501946366
C        8.0331720710   -5.8568005505    2.1424017411
C        2.9241458514   -1.5903818988    0.5431104580
C        0.8342797535   -0.3832677183    2.0247969566
C        8.4957814520   -5.8048295690    0.8546953368
C        6.7493138757   -4.4717416741    0.6152871759
C        4.0504625404   -2.2175130858   -0.1945211894
C        9.7385008038   -6.5105161243    0.4084469158
C        4.1629668036   -2.0243869921   -1.6904131478
N        7.7619842216   -5.0065490446   -0.0126493675
N        4.8600754271   -2.9999562282    0.4836145731
N        5.9074652926   -3.6426451351   -0.1130787251
S        6.5983326142   -4.8846607792    2.3199403316
Cl      -0.4581622065    0.3607915315    2.9331777314
H        3.4277824163    0.4299187165   -0.0323132309
H        2.1911440592   -3.4428051399    1.3684202719
H        1.5854703374    1.4729625407    1.2488065630
H        0.3511602876   -2.3831524172    2.6456529994
H        8.4976829271   -6.4166918791    2.9437946679
H        9.4756331100   -7.4758925814   -0.0324063693
H       10.2600183840   -5.9080445704   -0.3406936129
H       10.4090447729   -6.6746910056    1.2567104243
H        5.1218347819   -1.5590635287   -1.9357459076
H        4.0978885777   -2.9914800148   -2.1973312272
H        3.3552836850   -1.3838479879   -2.0559401746
H        6.1593686423   -3.5426059215   -1.0911143577
29   

C        2.5840723532   -0.2594293576    0.3842318107
C        2.1872328328   -2.3633846471    1.4917951014
C        1.5264225883    0.3130700067    1.1016454327
C        1.1313585072   -1.7862970179    2.2068401687
C        7.9571859669   -5.9725189066    2.1195747028
C        2.9221799324   -1.6121161030    0.5576784838
C        0.7889917539   -0.4445575180    2.0164051205
C        8.4703723820   -5.8532095350    0.8557034263
C        6.7323160740   -4.5090146644    0.6174146747
C        4.0617295866   -2.2114743719   -0.1742817620
C        9.7307617858   -6.5352472964    0.4224048673
C        4.2462227872   -1.9359550012   -1.6495133009
N        7.7701185329   -5.0102642810    0.0030395102
N        4.8469104760   -3.0319388785    0.4897491286
N        5.9178342232   -3.6428371801   -0.0987430425
S        6.5145994111   -5.0107050823    2.2907891506
Cl      -0.5274415889    0.2740721137    2.9106975323
H        3.1475530217    0.3601148256   -0.3043932640
H        2.4429075933   -3.4038026782    1.6652817041
H        1.2751725068    1.3571178665    0.9554806263
H        0.5744065954   -2.3817186322    2.9208152608
H        8.3906242103   -6.5739397782    2.9081911245
H        9.4867536320   -7.4750106775   -0.0803056738
H       10.2814920642   -5.8938000031   -0.2714308888
H       10.3667226484   -6.7459792133    1.2868546740
H        5.1976975509   -1.4229981528   -1.8162299595
H        4.2497116719   -2.8772601514   -2.2067286968
H        3.4347408027   -1.3133149668   -2.0357462101
H        6.2091669971   -3.4890086685   -1.0586806651
29   

C        2.4325338196   -0.3423954475    0.2529355462
C        2.3190496469   -2.3121679790    1.6340863998
C        1.3586239001    0.2101090627    0.9621822707
C        1.2465731182   -1.7550315207    2.3397322837
C        7.8846613898   -6.0768886756    2.0848904269
C        2.9281775610   -1.6189496408    0.5693049311
C        0.7546000189   -0.4903634597    2.0093010606
C        8.4443269836   -5.8995489122    0.8478220578
C        6.7163969893   -4.5425701662    0.6085025102
C        4.0705077969   -2.2061535077   -0.1653726598
C        9.7195245364   -6.5634114912    0.4298979560
C        4.3228451297   -1.8549009390   -1.6136882773
N        7.7763387326   -5.0162156480    0.0102870078
N        4.8365181636   -3.0586457228    0.4828864243
N        5.9280487214   -3.6426837179   -0.0952092747
S        6.4368797754   -5.1213967671    2.2475100403
Cl      -0.5825722157    0.2044067165    2.8916089083
H        2.8820689415    0.2490217577   -0.5359327327
H        2.6804023609   -3.2952298780    1.9188518922
H        0.9900369848    1.1962655736    0.7048874214
H        0.7922258530   -2.3071283668    3.1541432424
H        8.2884307572   -6.7156343540    2.8597967468
H        9.4937553146   -7.4794716205   -0.1226258919
H       10.2946894926   -5.8925287834   -0.2145154872
H       10.3241272232   -6.8134289059    1.3062948032
H        5.2459163811   -1.2744438495   -1.6990428201
H        4.4261233323   -2.7686852897   -2.2060580252
H        3.4972953377   -1.2795430790   -2.0389214994
H        6.2554701334   -3.4415648178   -1.0345394508
29   

C        2.5516747244   -0.0660144021    0.8413084550
C        2.1088963580   -2.3681632863    1.3824562766
C        1.7228430731    0.3338910063    1.8974776478
C        1.2826543319   -1.9624107954    2.4362179591
C        5.7534679578   -7.3182305573   -1.1771321055
C        2.7611230709   -1.4265233467    0.5566655755
C        1.0801630939   -0.6078968563    2.7030805954
C        6.4030109593   -6.7049731898   -2.2149719287
C        5.2626004010   -4.9593187339   -1.4825659458
C        3.6282788696   -1.8676322497   -0.5591567609
C        7.3917700363   -7.4134677544   -3.0878401869
C        4.0616311173   -0.9102166669   -1.6450817028
N        6.1238425984   -5.3550155404   -2.3810624774
N        4.0253008938   -3.1242571071   -0.5595383618
N        4.8697588046   -3.6283588490   -1.5081412471
S        4.7171486409   -6.1897784281   -0.3475933960
Cl       0.0501345241   -0.1017719153    4.0191738904
H        3.0375357095    0.7171484460    0.2737938595
H        2.2371360297   -3.4319034823    1.2093272012
H        1.5780552539    1.3883327625    2.1019196486
H        0.7934443439   -2.7060512193    3.0544469016
H        5.8719617338   -8.3584664935   -0.9025770614
H        6.8974843315   -7.7565360013   -4.0007425955
H        8.2042179059   -6.7329529046   -3.3580171448
H        7.8144379059   -8.2753438554   -2.5637656837
H        5.1108383342   -0.6375241090   -1.4999475934
H        3.9559065845   -1.3836826178   -2.6254196168
H        3.4531628815   -0.0049720106   -1.6691278324
H        5.2948538193   -3.0782169549   -2.2474573367
29   

C        2.3237398333   -0.0866313973    0.6461110515
C        2.3095272919   -2.3330554502    1.5024241261
C        1.4352704839    0.2940017464    1.6607989706
C        1.4227877592   -1.9456897508    2.5124265077
C        5.6937582418   -7.3486120613   -1.1862075375
C        2.7842542972   -1.4107702184    0.5405130985
C        0.9766568090   -0.6281646777    2.6017598986
C        6.3688910545   -6.7427084802   -2.2119609982
C        5.3039044866   -4.9652651229   -1.4434445584
C        3.7223105480   -1.8444774327   -0.5209381216
C        7.3218817462   -7.4763216193   -3.1036489136
C        4.2523150168   -0.8930025920   -1.5680491953
N        6.1492338610   -5.3786007903   -2.3490658513
N        4.0928056510   -3.1098491241   -0.5241577490
N        4.9623054243   -3.6200548657   -1.4469929885
S        4.7069281862   -6.1939016927   -0.3327062950
Cl      -0.1302737148   -0.1430169158    3.8621573968
H        2.6198854698    0.7010004434   -0.0305365497
H        2.6256334612   -3.3709413625    1.4775479330
H        1.0940626319    1.3208645385    1.7225559448
H        1.0768365868   -2.6755551158    3.2350369828
H        5.7660009280   -8.3988151197   -0.9344701004
H        6.8061040451   -7.7880097886   -4.0159713210
H        8.1570516952   -6.8237033648   -3.3733003623
H        7.7159783709   -8.3607524349   -2.5951726016
H        5.3423891085   -0.8410897655   -1.4924974327
H        3.9956488043   -1.2688348341   -2.5628451054
H        3.8687587416    0.1214325678   -1.4965050355
H        5.4045157595   -3.0752388483   -2.1801956509
29   

C        2.0925954732   -0.1962426710    0.4886399674
C        2.4706454101   -2.2641890529    1.6589039969
C        1.1502934322    0.1713134938    1.4578398517
C        1.5280400920   -1.8916056401    2.6234773146
C        5.7901816086   -7.3069843304   -1.1497982399
C        2.7776713247   -1.4210588956    0.5685505681
C        0.8599626584   -0.6699233523    2.5334940669
C        6.4040893063   -6.7038761329   -2.2149221912
C        5.3617402141   -4.9302657003   -1.4074096503
C        3.7812420112   -1.8232405119   -0.4427294970
C        7.2510099770   -7.4526975643   -3.1965038210
C        4.3652058702   -0.8227846618   -1.4131727084
N        6.1506124334   -5.3465938084   -2.3613285725
N        4.1324363511   -3.0929373186   -0.4782509313
N        5.0082552688   -3.5880797597   -1.4028299990
S        4.8489344665   -6.1514259313   -0.2474480653
Cl      -0.3174594391   -0.2058166682    3.7366171807
H        2.2496207932    0.4930744739   -0.3309117524
H        2.9679475986   -3.2226327905    1.7686248400
H        0.6306992818    1.1188207734    1.3750192119
H        1.3115889897   -2.5574037676    3.4507597852
H        5.8702008031   -8.3581909180   -0.9046990520
H        7.1009867077   -7.0485251859   -4.2016422343
H        8.3054844783   -7.3503195307   -2.9263064761
H        6.9835103928   -8.5131521612   -3.2002366518
H        5.4484977950   -0.9572113191   -1.4825841175
H        3.9300436470   -0.9732185918   -2.4052733225
H        4.1988464445    0.2084812823   -1.0983696964
H        5.4144141809   -3.0433349431   -2.1566456817
29   

C        1.9062605249   -0.2971349334    0.3442880173
C        2.5643313632   -2.1472561825    1.7388431154
C        0.9424732891    0.0678098920    1.2927108304
C        1.5992898821   -1.7783342667    2.6828404322
C        5.6914295745   -7.3031537722   -1.2547886132
C        2.7426732884   -1.4071612947    0.5531882423
C        0.7811659443   -0.6665187886    2.4703066942
C        6.3729548912   -6.6726455504   -2.2612735977
C        5.3163529764   -4.9111429389   -1.4456854124
C        3.7547389855   -1.8085589353   -0.4487221090
C        7.2610514143   -7.4005360455   -3.2219910054
C        4.4070082073   -0.7809911037   -1.3451221020
N        6.1497019797   -5.3065375076   -2.3702877124
N        4.0782860017   -3.0834987755   -0.5085791817
N        4.9864634502   -3.5633926222   -1.4094855604
S        4.7209136472   -6.1644668951   -0.3620841157
Cl      -0.4237589777   -0.2082536471    3.6481654877
H        1.9777867415    0.2902663950   -0.5634650748
H        3.1810152243   -3.0192686732    1.9321660756
H        0.3055703012    0.9263970942    1.1145424298
H        1.4807864077   -2.3613771536    3.5886690262
H        5.7406252435   -8.3639428942   -1.0454765883
H        7.1826058334   -6.9503061272   -4.2156178962
H        8.2990004589   -7.3370037710   -2.8842790375
H        6.9697659466   -8.4526119808   -3.2884561468
H        5.4952318514   -0.8803043959   -1.2954023479
H        4.0868885837   -0.9348569887   -2.3795888790
H        4.1560614550    0.2375617131   -1.0401929899
H        5.4442459303   -2.9989316019   -2.1178741972
29   

C        1.7822378618   -0.4242069420    0.2297570962
C        2.6888463605   -2.0004300615    1.8122747352
C        0.8011018196   -0.0603818662    1.1603760753
C        1.7057700638   -1.6336854988    2.7387006497
C        5.5920870699   -7.3212758183   -1.3418609212
C        2.7515270176   -1.3907701377    0.5467547359
C        0.7552736088   -0.6586394826    2.4231334635
C        6.3351702570   -6.6771120604   -2.2946682369
C        5.2862788242   -4.9152899869   -1.4698362077
C        3.7694402211   -1.8021769389   -0.4472620673
C        7.2480414163   -7.3972977088   -3.2378102239
C        4.4936446477   -0.7595532068   -1.2687349946
N        6.1515107562   -5.3027653556   -2.3681653271
N        4.0569756761   -3.0833296554   -0.5285896680
N        4.9899592472   -3.5608433765   -1.4049257751
S        4.6102265560   -6.1864211441   -0.4566990524
Cl      -0.4714660685   -0.2037377378    3.5795778360
H        1.7792673264    0.0458637558   -0.7472669571
H        3.4089058891   -2.7688224089    2.0749984230
H        0.0615044617    0.6887679720    0.9028924280
H        1.6747248693   -2.1126981527    3.7103305260
H        5.6046446773   -8.3891944272   -1.1661241705
H        7.2333972936   -6.9085633235   -4.2161169675
H        8.2691367845   -7.3797060509   -2.8473232874
H        6.9286212524   -8.4362701003   -3.3587714862
H        5.5727811474   -0.8446128278   -1.1113034873
H        4.2786467265   -0.9073428275   -2.3308836674
H        4.1848881566    0.2490208404   -0.9809624444
H        5.4967424609   -2.9872553231   -2.0714015043
29   

C        1.6701449596   -0.5938102025    0.1485782222
C        2.8075485291   -1.8218708351    1.8844733165
C        0.6699730322   -0.2364803953    1.0611802729
C        1.8051239730   -1.4627476894    2.7932115867
C        5.4943263533   -7.3305708325   -1.4387474056
C        2.7624172527   -1.3778752743    0.5533502181
C        0.7297524248   -0.6641200245    2.3914891577
C        6.2970392926   -6.6762452527   -2.3345156797
C        5.2672877628   -4.9129753493   -1.4888690142
C        3.8015750236   -1.7925242901   -0.4233856540
C        7.2267016253   -7.3906530783   -3.2655540194
C        4.5946035282   -0.7368428138   -1.1611385888
N        6.1586450408   -5.2949388780   -2.3637508991
N        4.0518088130   -3.0778902209   -0.5361890469
N        5.0092884201   -3.5529410291   -1.3868677751
S        4.5099888852   -6.1978861092   -0.5536330521
Cl      -0.5204494181   -0.2185047443    3.5262170170
H        1.5939984818   -0.2630170278   -0.8813373141
H        3.6257418952   -2.4565168449    2.2089711360
H       -0.1658543471    0.3729102432    0.7378528534
H        1.8555812521   -1.8110200389    3.8182119828
H        5.4665908607   -8.4040270124   -1.3030885650
H        7.2707451056   -6.8648764049   -4.2235624572
H        8.2297125475   -7.4227000694   -2.8315633639
H        6.8793833878   -8.4127810455   -3.4409341526
H        5.6570805485   -0.8313090227   -0.9188896927
H        4.4646537921   -0.8584612735   -2.2402408270
H        4.2592631276    0.2641716284   -0.8751807238
H        5.5635902511   -2.9723197631   -2.0078720616
29   

C        1.5738173093   -0.8245973682    0.0642534545
C        2.8993163353   -1.5840856294    1.9296568885
C        0.5503492151   -0.4546698804    0.9454598334
C        1.8738349873   -1.2132616809    2.8076156793
C        5.3780863029   -7.3488219259   -1.5774103914
C        2.7670216958   -1.3807728306    0.5480870660
C        0.6920174125   -0.6420937327    2.3244503199
C        6.2457078134   -6.6876394640   -2.4049989211
C        5.2449750950   -4.9242301562   -1.5253789225
C        3.8483878308   -1.7989052280   -0.3897328649
C        7.1896382383   -7.3963197353   -3.3260037340
C        4.7045268840   -0.7374621044   -1.0444716605
N        6.1611453395   -5.3019559340   -2.3762003807
N        4.0536258656   -3.0863609027   -0.5482120485
N        5.0337026808   -3.5607939455   -1.3730021350
S        4.3969057870   -6.2184936825   -0.6858834231
Cl      -0.5860469712   -0.1802042489    3.4209846661
H        1.4396849033   -0.6825151887   -1.0024718270
H        3.8036047706   -2.0400261540    2.3186342880
H       -0.3660296130   -0.0227606808    0.5605029646
H        1.9898911042   -1.3739943250    3.8730582792
H        5.3035322517   -8.4252864142   -1.4929372972
H        7.2954066935   -6.8319390380   -4.2568330722
H        8.1704193593   -7.4852015558   -2.8510735038
H        6.8137450623   -8.3959897429   -3.5616104678
H        5.7486470957   -0.8622606403   -0.7434652785
H        4.6362304453   -0.8209267640   -2.1328085281
H        4.3686993858    0.2595859983   -0.7450007205
H        5.6389952981   -2.9758810031   -1.9400125573
29   

C        1.5613619961   -1.0618340796    0.1393338493
C        3.0558942320   -1.2967516744    2.0167257579
C        0.5459627170   -0.6348831594    1.0038755957
C        2.0387050970   -0.8685804867    2.8782602179
C        5.0979878589   -7.3557170186   -1.8985550589
C        2.8286965820   -1.3933844943    0.6363144241
C        0.7757561484   -0.5316240985    2.3799841361
C        6.1297487058   -6.7054820999   -2.5210937979
C        5.1477324815   -4.9439109085   -1.6169724353
C        3.9189654320   -1.8241890141   -0.2901936870
C        7.1957007220   -7.4211551713   -3.2912867923
C        4.8340175014   -0.7719456378   -0.8776584857
N        6.1573168074   -5.3276594837   -2.3514660267
N        4.0388453021   -3.1070648844   -0.5424852515
N        5.0280085336   -3.5863565674   -1.3537434496
S        4.0753397309   -6.2229880655   -1.0578890468
Cl      -0.4905042966    0.0057190930    3.4556294344
H        1.3645685038   -1.1405351073   -0.9243870385
H        4.0281631680   -1.5584186057    2.4199607641
H       -0.4308034821   -0.3819735544    0.6083429111
H        2.2258740834   -0.7970591932    3.9433208470
H        4.9412009330   -8.4264762444   -1.9173461772
H        6.9518077676   -7.4078608364   -4.3569984256
H        8.1592080244   -6.9258920905   -3.1411646639
H        7.2774922636   -8.4587866696   -2.9554760725
H        5.8671241010   -0.9629934978   -0.5737266826
H        4.7750288360   -0.7935697125   -1.9695985332
H        4.5418121923    0.2225948153   -0.5281151635
H        5.7462341855   -3.0115530894   -1.7824351163
29   

C        1.5517503003   -1.4138460068    0.2083646926
C        3.0719455978   -0.9932530693    2.0332711420
C        0.4846213382   -0.9670269758    0.9969863792
C        2.0022230800   -0.5459445972    2.8182071403
C        5.0127645981   -7.3242953467   -2.0600577860
C        2.8566745827   -1.4376884628    0.7203230245
C        0.6998135239   -0.5282134791    2.3077930402
C        6.0876339542   -6.6799720187   -2.6117500321
C        5.1519776014   -4.9395304139   -1.6217075061
C        3.9945139527   -1.8595807158   -0.1449185505
C        7.1457599003   -7.3903546064   -3.3974185698
C        4.9367950362   -0.8033812494   -0.6791110319
N        6.1660028005   -5.3180873495   -2.3527168358
N        4.0803466879   -3.1297269598   -0.4674877853
N        5.0783229359   -3.5976591513   -1.2744762658
S        4.0123932401   -6.2049853029   -1.1758271415
Cl      -0.6316956989    0.0339944765    3.2876735041
H        1.3687127501   -1.7507137704   -0.8065385098
H        4.0751055891   -0.9963547855    2.4452903812
H       -0.5205507934   -0.9588056827    0.5919671939
H        2.1790609149   -0.2074023122    3.8324257069
H        4.8138985330   -8.3842679422   -2.1515765552
H        6.9233642677   -7.3166699664   -4.4653674865
H        8.1211264708   -6.9343456286   -3.2053646893
H        7.1884864525   -8.4453525044   -3.1123093441
H        5.9600776377   -1.0193913082   -0.3592117581
H        4.9017166575   -0.7904967700   -1.7722588508
H        4.6515545032    0.1847788201   -0.3066008297
H        5.8298111088   -3.0261346216   -1.6468300823
29   

C        1.5734138330   -1.6549796411    0.2956960588
C        3.0684334896   -0.7479339301    1.9572669538
C        0.4763060094   -1.2110342389    1.0435537799
C        1.9680552162   -0.3049566819    2.7012244408
C        4.9283459893   -7.2843472256   -2.1732970404
C        2.8841721437   -1.4364733401    0.7476348019
C        0.6630832941   -0.5322564949    2.2520910013
C        6.0485417523   -6.6631183251   -2.6571846192
C        5.1420207595   -4.9256168858   -1.6354609844
C        4.0419314028   -1.8614908119   -0.0795509985
C        7.1090068655   -7.3848616963   -3.4292147779
C        5.0412538034   -0.8269699491   -0.5473965324
N        6.1690223555   -5.3163769325   -2.3414327723
N        4.0946788061   -3.1209009399   -0.4516450101
N        5.1055505234   -3.5962254000   -1.2380723393
S        3.9372622191   -6.1602960292   -1.2846051026
Cl      -0.7067170841    0.0239014261    3.1813408366
H        1.4102580361   -2.1790426699   -0.6404249654
H        4.0711264329   -0.5578911228    2.3239486414
H       -0.5303292708   -1.3928928247    0.6856653046
H        2.1225502894    0.2213818021    3.6359103950
H        4.6926844121   -8.3312699564   -2.3143426205
H        6.9314777358   -7.2630070281   -4.5011489971
H        8.0926461058   -6.9748680067   -3.1831821230
H        7.1006795476   -8.4505525131   -3.1835279616
H        6.0402284610   -1.0813657452   -0.1820667718
H        5.0609788256   -0.7950877623   -1.6405864430
H        4.7705790121    0.1651464061   -0.1750633299
H        5.8931417073   -3.0410852310   -1.5567418334
29   

C        1.6171136347   -1.8208713071    0.4035976886
C        3.0591968018   -0.5434259544    1.8550926269
C        0.5038750545   -1.3906946022    1.1353086138
C        1.9419164332   -0.1159735126    2.5827149559
C        4.8446682726   -7.2323334939   -2.2686715073
C        2.9136934256   -1.4067286714    0.7549840386
C        0.6553610295   -0.5346273122    2.2301863170
C        6.0066667488   -6.6434300656   -2.6904707830
C        5.1309604778   -4.9012485405   -1.6500450472
C        4.0806579251   -1.8407763793   -0.0473040898
C        7.0662002019   -7.3844931385   -3.4452813522
C        5.1489215952   -0.8440212651   -0.4366326053
N        6.1684150143   -5.3127790645   -2.3283372434
N        4.1052519771   -3.0908343087   -0.4565096339
N        5.1301019144   -3.5836261115   -1.2137038387
S        3.8652616317   -6.0954450739   -1.3833673323
Cl      -0.7351556929    0.0017987189    3.1400777262
H        1.4746259785   -2.4850490971   -0.4428892151
H        4.0443866355   -0.2054367318    2.1563307071
H       -0.4882691181   -1.7231756653    0.8532126420
H        2.0690463756    0.5463251593    3.4310974643
H        4.5731317869   -8.2640167680   -2.4514018694
H        6.9354572609   -7.2220112154   -4.5185634864
H        8.0553664378   -7.0237628684   -3.1493309005
H        7.0051126367   -8.4560447666   -3.2351232210
H        6.1084080806   -1.1380728515   -0.0017288959
H        5.2494139387   -0.8116836154   -1.5253970797
H        4.8938034357    0.1600808202   -0.0873895156
H        5.9513851971   -3.0513862198   -1.4824828779
29   

C        1.6594230187   -1.9602811568    0.5259989799
C        3.0191665905   -0.3835896795    1.7422930100
C        0.5376224560   -1.5521773339    1.2570393754
C        1.8925317408    0.0199284127    2.4691534442
C        4.7761284026   -7.1709843941   -2.3751697600
C        2.9227413522   -1.3801659598    0.7512358250
C        0.6426206324   -0.5580354948    2.2329628599
C        5.9800644073   -6.6180650847   -2.7213519102
C        5.1198268668   -4.8699426745   -1.6780048671
C        4.0968534930   -1.8178811448   -0.0356499507
C        7.0475196686   -7.3806605239   -3.4428040316
C        5.2280385839   -0.8607286212   -0.3340763512
N        6.1741191751   -5.3047518885   -2.3144810623
N        4.1030384767   -3.0563455072   -0.4829812129
N        5.1454012348   -3.5652888115   -1.2048810133
S        3.7971788878   -6.0194932712   -1.5084886270
Cl      -0.7588754450   -0.0507959921    3.1427613409
H        1.5421676026   -2.7355416932   -0.2245389452
H        3.9716026413    0.0798531529    1.9712875962
H       -0.4254397554   -2.0114663559    1.0671640814
H        1.9848824515    0.7870074643    3.2291810631
H        4.4747363857   -8.1858304578   -2.6004718213
H        6.9845443992   -7.1769585833   -4.5151684276
H        8.0330152820   -7.0747131755   -3.0803869150
H        6.9286870545   -8.4547826905   -3.2746698566
H        6.1327422275   -1.1806716633    0.1907340158
H        5.4309459977   -0.8473709896   -1.4088910357
H        4.9815135102    0.1598226800   -0.0320712881
H        5.9993544370   -3.0583264499   -1.4140558517
29   

C        1.7214130773   -2.0872880607    0.6633168289
C        2.9530644722   -0.2435334675    1.6083307919
C        0.5897901367   -1.6991526956    1.3898675132
C        1.8158838624    0.1377702367    2.3307878945
C        4.7147126974   -7.1108769014   -2.4851253172
C        2.9282127725   -1.3613675554    0.7464252832
C        0.6246391600   -0.5827231697    2.2270408288
C        5.9554680851   -6.5974775083   -2.7535494149
C        5.1084409940   -4.8429866160   -1.7101948496
C        4.1126750862   -1.8012238488   -0.0246090483
C        7.0301093903   -7.3833757918   -3.4383856541
C        5.3029071174   -0.8940093406   -0.2340282901
N        6.1775380663   -5.3031925377   -2.3025120916
N        4.1015174577   -3.0254189724   -0.5132011501
N        5.1581638135   -3.5529124036   -1.2005575909
S        3.7359379920   -5.9434690070   -1.6397707150
Cl      -0.7893516500   -0.1014410419    3.1316088764
H        1.6450899678   -2.9627108239    0.0263513703
H        3.8523774914    0.3416595096    1.7519045206
H       -0.3267522496   -2.2711670144    1.3046734870
H        1.8554666581    1.0000046270    2.9862301337
H        4.3872403335   -8.1071633024   -2.7528839558
H        7.0376889021   -7.1445349061   -4.5053021692
H        8.0048657150   -7.1315747316   -3.0110615605
H        6.8573307222   -8.4559751047   -3.3126546434
H        6.1479716122   -1.2491505363    0.3626890918
H        5.5931101325   -0.8976459415   -1.2887005327
H        5.0866037527    0.1418982646    0.0312713178
H        6.0410363914   -3.0750221804   -1.3492850794
29   

C        1.8203703882   -2.2238510969    0.9047885438
C        2.8407139614   -0.1131799903    1.4472247176
C        0.6604114221   -1.8350121421    1.5843268234
C        1.6756911850    0.2671153988    2.1247954072
C        4.7059384695   -7.0544699444   -2.5560883695
C        2.9452913146   -1.3747898125    0.8137165683
C        0.5760613251   -0.5870659638    2.2000785743
C        5.9608555911   -6.5557981746   -2.7833021935
C        5.1313268991   -4.8289893770   -1.6814033923
C        4.1542549362   -1.8260670897    0.0859375352
C        7.0302905490   -7.3335234618   -3.4853851429
C        5.3867781581   -0.9620058969   -0.0444295951
N        6.2011586406   -5.2864456388   -2.2744912428
N        4.1310513412   -3.0314633613   -0.4484232124
N        5.1969798135   -3.5614199030   -1.1198201054
S        3.7365625282   -5.9034430956   -1.6780511515
Cl      -0.8726576146   -0.1043181573    3.0470848534
H        1.8259891047   -3.2071980721    0.4458214683
H        3.6424327681    0.6110821815    1.4427810520
H       -0.1856212638   -2.5104543904    1.6346389227
H        1.6206953749    1.2390977767    2.6011533202
H        4.3630779468   -8.0315220946   -2.8712696036
H        7.0575101308   -7.0511902685   -4.5413199833
H        8.0034287561   -7.1183169559   -3.0350165289
H        6.8355947992   -8.4068317772   -3.4065631799
H        6.2344841936   -1.4613997743    0.4337357643
H        5.6227386171   -0.8210351188   -1.1033040508
H        5.2870207926    0.0251354897    0.4010986665
H        6.0900504885   -3.0939402703   -1.2375165512
