31

C      1.72588   -1.81810   -0.55253
C      0.46203   -1.52118   -0.03307
C      2.83678   -1.85380    0.29348
C      0.31446   -1.24110    1.32838
C      5.25748   -2.10053    4.10951
C      3.97356   -2.34075    3.67986
C      5.02887   -0.95586    2.30416
C      2.69475   -1.57071    1.65599
C      1.42582   -1.25365    2.17277
C      4.14482    0.56134    5.98980
C      1.59413    0.37664    3.87144
C      1.46029    0.52012    5.37323
N      5.90250   -1.22802    3.25177
N      3.82935   -1.60510    2.51108
O      2.31444   -0.15115    7.81772
O      1.26630   -0.98051    3.51581
S      2.67219   -0.46376    6.37328
H      1.84593   -2.04172   -1.60854
H     -0.40773   -1.51002   -0.68389
H      3.81766   -2.12133   -0.08902
H     -0.65673   -1.00777    1.75551
H      5.74850   -2.49706    4.98867
H      3.16794   -2.94077    4.07350
H      5.18224   -0.29854    1.45770
H      4.96635    0.14776    6.57769
H      3.94066    1.58670    6.31022
H      4.40727    0.50940    4.93183
H      0.89482    1.05840    3.36903
H      2.60564    0.61939    3.52543
H      1.56985    1.56397    5.68359
H      0.48495    0.15779    5.70924
