31

C      1.86493   -2.20865   -0.20066
C      0.77610   -1.48421    0.29293
C      2.98813   -2.40835    0.60482
C      0.81151   -0.96254    1.58863
C      5.85578   -2.01419    4.11040
C      4.89543   -1.26782    3.46824
C      4.67629   -3.42280    2.99510
C      3.02289   -1.90745    1.90976
C      1.92661   -1.17725    2.40291
C      2.67054   -3.54806    7.30774
C      0.94292   -1.02604    4.58868
C      1.57207   -1.47416    5.89605
N      5.70621   -3.35678    3.81316
N      4.14071   -2.17750    2.74248
O      1.58473   -3.95715    4.87440
O      2.00525   -0.67671    3.68012
S      2.56198   -3.01003    5.55921
H      1.84620   -2.60850   -1.21021
H     -0.09749   -1.31590   -0.33074
H      3.84866   -2.95628    0.23180
H     -0.02636   -0.39095    1.97773
H      6.64568   -1.66347    4.76239
H      4.67799   -0.21095    3.44786
H      4.23692   -4.32172    2.58343
H      3.25970   -4.46723    7.31872
H      1.66227   -3.74501    7.68123
H      3.17180   -2.78012    7.90406
H      0.34285   -1.84012    4.17208
H      0.30460   -0.15034    4.75358
H      2.24595   -0.71334    6.30085
H      0.78970   -1.71326    6.62413
