17   

C        5.9158525365    0.1245276723   -0.8427783564
C        4.6764425716   -0.6282312984   -1.0436197808
C        5.9741698537    1.0500024987    0.1689349720
C        3.5816452153   -0.4470019345   -0.2372720023
C        4.8146106247    1.2603949065    1.0111339935
C        2.2659951024   -1.1421536125   -0.4086026817
C        2.1075656280   -2.3280721668   -1.3497768154
N        3.6763788508    0.5186248284    0.7948180645
O        4.8242481000    2.0843557757    1.9084064969
O        1.2844112229   -0.7092932295    0.1842437942
H        6.7741297376   -0.0417739567   -1.4858062451
H        4.6406094479   -1.3400591377   -1.8607802055
H        6.8598156905    1.6392537943    0.3624027416
H        2.8164923699   -3.1141600477   -1.0769318127
H        2.2903047231   -2.0123344585   -2.3800268550
H        1.0919082198   -2.7272903295   -1.2764283579
H        2.8787436555    0.7381205421    1.3833176930
17   

C        5.9079755279    0.1528461669   -0.8595968554
C        4.6589055294   -0.5745044709   -1.0908287193
C        5.9890293768    1.0089902179    0.2099295015
C        3.5834660551   -0.4497416214   -0.2487894074
C        4.8432105005    1.1730522811    1.0809061826
C        2.2471792405   -1.0928431639   -0.4736933631
C        2.1024909146   -2.3407573790   -1.3332168634
N        3.6987511162    0.4483568564    0.8404172064
O        4.8687113077    1.9445802949    2.0233363756
O        1.2419971995   -0.5386245452   -0.0465966649
H        6.7539935233    0.0251095908   -1.5272146503
H        4.5971807458   -1.2172836447   -1.9618593197
H        6.8814265037    1.5797400564    0.4264546813
H        2.7448851267   -3.1339391062   -0.9416942638
H        2.3837905780   -2.1193667263   -2.3656310221
H        1.0646394844   -2.6854882783   -1.3153374596
H        2.9025015587    0.6663295361    1.4308934050
17   

C        5.8956790970    0.2012250521   -0.9323431244
C        4.6328663803   -0.5018082196   -1.1635495827
C        6.0321084748    0.9650055091    0.1996970583
C        3.6045282893   -0.4538555016   -0.2576512753
C        4.9292422927    1.0586893564    1.1343411182
C        2.2465296070   -1.0559567065   -0.4933323175
C        2.0801130276   -2.3589333249   -1.2641355745
N        3.7723281707    0.3541411347    0.8932975622
O        5.0007307117    1.7538627455    2.1321749316
O        1.2512824461   -0.4054407909   -0.2061265544
H        6.7073703289    0.1300828989   -1.6491913282
H        4.5223768669   -1.0566332307   -2.0881622679
H        6.9362995840    1.5157796059    0.4190041840
H        2.4656362656   -3.1878946133   -0.6647173866
H        2.6183405786   -2.3175258106   -2.2132766676
H        1.0206108169   -2.5352201919   -1.4706478564
H        3.0021186703    0.5467430829    1.5249770601
17   

C        5.8836044300    0.2582781433   -0.9781691177
C        4.6132479791   -0.4209492860   -1.2363174634
C        6.0403643368    0.9450720275    0.1999177959
C        3.6013425379   -0.4282471819   -0.3126142550
C        4.9507404745    0.9836380053    1.1544763551
C        2.2352875803   -1.0068648768   -0.5900788114
C        2.0829500803   -2.3860513294   -1.2177837237
N        3.7851239710    0.3038074801    0.8852679532
O        5.0406438018    1.6093798940    2.1958063192
O        1.2549137168   -0.2830536710   -0.5134046149
H        6.6840317232    0.2309558180   -1.7105189074
H        4.4775922118   -0.9081799686   -2.1955169292
H        6.9508754176    1.4757156423    0.4415763813
H        2.1350167845   -3.1464214653   -0.4341190272
H        2.8756272900   -2.5722916285   -1.9453033942
H        1.1154841449   -2.4614427599   -1.7220008956
H        3.0271765642    0.4674717183    1.5387425439
17   

C        5.8667980589    0.3797702249   -1.0421636834
C        4.5899982013   -0.2778304771   -1.3226331220
C        6.0452699413    0.9858708524    0.1765755278
C        3.5912782317   -0.3358162693   -0.3893739771
C        4.9707063445    0.9642433628    1.1489337345
C        2.2241240464   -0.9227172934   -0.6800819235
C        2.0872010006   -2.3889275394   -1.0619911067
N        3.7946271757    0.3145524635    0.8516425751
O        5.0829340444    1.5082865062    2.2330700354
O        1.2725267753   -0.1776292616   -0.8361910436
H        6.6554698790    0.3967831039   -1.7874542696
H        4.4330516612   -0.7154102447   -2.3028993710
H        6.9627075749    1.4942612620    0.4390096296
H        2.0415897609   -2.9963349308   -0.1542896873
H        2.9447165727   -2.7071702906   -1.6596980527
H        1.1718186074   -2.5416983736   -1.6403433225
H        3.0559997596    0.4288814922    1.5362857253
17   

C        5.8226425610    0.5267122507   -1.1289763509
C        4.5511075813   -0.1149899769   -1.4645072484
C        6.0047938243    1.0086902574    0.1435063549
C        3.5478537131   -0.2468975202   -0.5457813942
C        4.9392052844    0.8744940883    1.1166450131
C        2.2190782802   -0.9123643688   -0.8553202577
C        2.0182850121   -2.3859420052   -0.5403835783
N        3.7625084438    0.2562230657    0.7605469500
O        5.0612209430    1.2864810042    2.2564301493
O        1.2871430145   -0.2533364983   -1.2786800561
H        6.6064898720    0.6226371191   -1.8733914562
H        4.4000441820   -0.4877265603   -2.4723872645
H        6.9207750798    1.4943038384    0.4504435125
H        2.4318470210   -2.6153872728    0.4450688939
H        2.5294628071   -2.9925650626   -1.2923465515
H        0.9520850355   -2.6290792934   -0.5468164711
H        3.0419978317    0.2703968193    1.4728274596
17   

C        5.7974483276    0.6506559373   -1.1635239203
C        4.5367766902    0.0094347126   -1.5381775611
C        5.9881584323    1.0202778518    0.1447202818
C        3.5413465505   -0.2103252775   -0.6269185319
C        4.9418580188    0.7708806849    1.1158272840
C        2.2620803939   -0.9397178983   -0.9788140454
C        1.9375392409   -2.2635631501   -0.3017765298
N        3.7713720012    0.1649649765    0.7202576422
O        5.0751567060    1.0698052305    2.2890566550
O        1.3949635532   -0.3917246713   -1.6356852497
H        6.5680657185    0.8293687910   -1.9064984981
H        4.3862081864   -0.2948681798   -2.5691209083
H        6.8983839401    1.4962957459    0.4823008339
H        2.2958939323   -2.2635419027    0.7304317832
H        2.4260913503   -3.0759415318   -0.8462227559
H        0.8570055137   -2.4316696744   -0.3049395961
H        3.0720952625    0.0819067253    1.4483983606
17   

C        5.7613816025    0.7972036989   -1.1484606007
C        4.5144051611    0.1466355658   -1.5509756486
C        5.9762139658    1.0477572528    0.1842007270
C        3.5492855179   -0.1866642816   -0.6395001967
C        4.9682063300    0.6668910006    1.1535462785
C        2.3169975310   -0.9543562677   -1.0464371933
C        1.8921625316   -2.1857350356   -0.2586545760
N        3.8063276254    0.0616394931    0.7321988983
O        5.1269829425    0.8520226279    2.3468894210
O        1.5514733184   -0.5003881308   -1.8801609597
H        6.5041405714    1.0728344578   -1.8901840407
H        4.3485785884   -0.0744728295   -2.6009232804
H        6.8792962766    1.5221457262    0.5426208588
H        1.7519844448   -1.9335001979    0.7949132859
H        2.6625971765   -2.9566218155   -0.3452715621
H        0.9531894668   -2.5790607486   -0.6585757196
H        3.1428617673   -0.1355563600    1.4713363783
17   

C        5.7522462437    0.8922223293   -1.1352172078
C        4.5300369650    0.2111095919   -1.5620081477
C        5.9808267338    1.0607447965    0.2081127859
C        3.5998078717   -0.2308578743   -0.6592301219
C        5.0117663327    0.5645807998    1.1651441388
C        2.4004493313   -1.0193468075   -1.1057766625
C        1.8642812249   -2.1568125944   -0.2480605035
N        3.8709460728   -0.0650562996    0.7223851472
O        5.1850398092    0.6740966267    2.3657775240
O        1.7582558882   -0.6634972888   -2.0813397249
H        6.4662877750    1.2538401269   -1.8681552626
H        4.3548400042    0.0546229212   -2.6222557319
H        6.8673371277    1.5528030573    0.5836630563
H        1.4180263690   -1.7586277835    0.6663576502
H        2.6792084160   -2.8382914612    0.0108478850
H        1.1041190876   -2.7136605519   -0.8034476726
H        3.2407308606   -0.3590988089    1.4583049289
17   

C        5.7388550267    0.9568481834   -1.1176598213
C        4.5306667650    0.2565790621   -1.5532354355
C        6.0049231622    1.0442362141    0.2264708792
C        3.6525239341   -0.2904090779   -0.6549309504
C        5.0887141616    0.4446194012    1.1761554565
C        2.4539807443   -1.0677588776   -1.1180386673
C        1.8004972406   -2.1018904481   -0.2114722978
N        3.9606899934   -0.2028137580    0.7264082935
O        5.2935410737    0.4857923791    2.3761111141
O        1.9254363648   -0.7978429940   -2.1860423422
H        6.4128733202    1.3969571385   -1.8455467697
H        4.3259664438    0.1719661821   -2.6165007029
H        6.8827888259    1.5473665362    0.6076007063
H        1.3527050980   -1.6100175676    0.6555225846
H        2.5492397108   -2.8247332733    0.1236520827
H        1.0189424247   -2.6351539231   -0.7603459059
H        3.3723928565   -0.5784503538    1.4597909182
17   

C        5.7067594810    1.0081269602   -1.1239320774
C        4.5285726370    0.2636271177   -1.5683312255
C        5.9966842988    1.0499387635    0.2173457516
C        3.7054487251   -0.3787117590   -0.6805186374
C        5.1342490497    0.3600180383    1.1556998283
C        2.5197847827   -1.1718559100   -1.1493680730
C        1.7700995382   -2.0938208764   -0.1968901302
N        4.0334587185   -0.3276558722    0.6983749023
O        5.3584601420    0.3637741974    2.3528859950
O        2.1089247694   -1.0374983989   -2.2928067971
H        6.3400595764    1.5167452301   -1.8436944264
H        4.3054336344    0.2233265007   -2.6305162492
H        6.8541341079    1.5830175413    0.6041917987
H        1.3201812193   -1.5103986980    0.6103928620
H        2.4586368292   -2.8319886420    0.2228915562
H        0.9775523207   -2.6198918298   -0.7369266440
H        3.4866282143   -0.7728665845    1.4248336355
17   

C        5.6717645956    1.0639868374   -1.1340210296
C        4.5259456542    0.2763829557   -1.5887287339
C        5.9832866024    1.0694226366    0.2030782592
C        3.7611081864   -0.4517666124   -0.7150190569
C        5.1749326299    0.2996603585    1.1273709002
C        2.5868448279   -1.2571693550   -1.1917704492
C        1.7421274440   -2.0633438288   -0.2139985363
N        4.1046674323   -0.4287647233    0.6608391265
O        5.4152190945    0.2758498930    2.3212040963
O        2.2979993940   -1.2712463204   -2.3796747577
H        6.2640297981    1.6334473540   -1.8430737773
H        4.2820115387    0.2740339501   -2.6470954119
H        6.8181034886    1.6324855770    0.5968810046
H        1.2978107537   -1.3974643927    0.5303583258
H        2.3637061891   -2.8108477081    0.2857627439
H        0.9393075182   -2.5756259104   -0.7521274247
H        3.5985470278   -0.9344672118    1.3771265918
17   

C        5.6032449412    1.1133722719   -1.1463754224
C        4.4926711631    0.2748161843   -1.5973546048
C        5.9437665095    1.1025952118    0.1836730334
C        3.7972412227   -0.5256767852   -0.7290774165
C        5.1999636223    0.2661098133    1.1043621493
C        2.6353004122   -1.3529533395   -1.1978756225
C        1.7039678681   -2.0278541460   -0.1997276426
N        4.1628112670   -0.5107015058    0.6410696164
O        5.4626627957    0.2322463294    2.2932223103
O        2.4609359928   -1.5396935368   -2.3933267147
H        6.1464571099    1.7334587455   -1.8522292834
H        4.2182227424    0.2912821436   -2.6481040307
H        6.7541465686    1.7020621310    0.5747768475
H        1.2736676146   -1.2789625329    0.4704914016
H        2.2562793129   -2.7688178941    0.3837469437
H        0.8915843467   -2.5310188889   -0.7320561035
H        3.7051758884   -1.0663134088    1.3530010196
17   

C        6.2646320669   -0.1042235031   -0.0290535847
C        5.2016605974   -1.0996667743   -0.1668776868
C        5.9218049614    1.2224924397    0.0570056259
C        3.8791654531   -0.7420714901   -0.1881625351
C        4.5240696339    1.6032850341    0.0099254746
C        2.8031174041   -1.7669852026   -0.4035259428
C        1.4439583200   -1.3619617793   -0.9576242237
N        3.5532282184    0.6360894365   -0.1161076879
O        4.1763984360    2.7692031637    0.0673791323
O        2.9716906851   -2.9186865758   -0.0316716827
H        7.3052978115   -0.4106083860    0.0019446563
H        5.4707812562   -2.1484264357   -0.2521752844
H        6.6633435330    2.0028974037    0.1576872021
H        1.5749964974   -0.8266817233   -1.9019396225
H        0.9240738676   -0.7201802325   -0.2421039865
H        0.8374954927   -2.2536330955   -1.1408905792
H        2.6055448300    0.9922091636   -0.1270307831
17   

C        6.2553276612   -0.1198954564   -0.0979014397
C        5.1842672215   -1.1105400017   -0.2042676826
C        5.9202007564    1.2013255139    0.0671729710
C        3.8645757574   -0.7562803635   -0.1116008681
C        4.5227509129    1.5807204189    0.1331944483
C        2.7738708443   -1.7682767120   -0.3256359304
C        1.4848068984   -1.3727956294   -1.0319569687
N        3.5450869924    0.6170877042    0.0355513234
O        4.1810201665    2.7431560494    0.2576995451
O        2.8478610604   -2.8717291498    0.1917436240
H        7.2954627163   -0.4247903769   -0.1524819485
H        5.4427601688   -2.1540493914   -0.3578138149
H        6.6673366982    1.9786787228    0.1482274659
H        1.7204018875   -0.8774945275   -1.9778560494
H        0.9041231010   -0.6956574674   -0.4009692133
H        0.8881748263   -2.2651312521   -1.2420718476
H        2.5989190533    0.9690119522    0.1138184374
17   

C        6.2272842725   -0.1397056850   -0.1880350298
C        5.1392162191   -1.1153863634   -0.2540694984
C        5.9213874795    1.1763653619    0.0554893502
C        3.8350699803   -0.7546262144   -0.0481453543
C        4.5375586980    1.5645803899    0.2427962367
C        2.7100581202   -1.7427273109   -0.2256238851
C        1.4988466050   -1.3740053177   -1.0708405791
N        3.5444000657    0.6141734785    0.1780749477
O        4.2202290002    2.7237628192    0.4406587964
O        2.6670714108   -2.7597157670    0.4460183003
H        7.2568263571   -0.4509579621   -0.3328869231
H        5.3726997489   -2.1537723974   -0.4685865805
H        6.6814913876    1.9432551795    0.1119617409
H        1.8118974926   -1.2187171742   -2.1068053063
H        1.0360358017   -0.4592725838   -0.6935518733
H        0.7634205118   -2.1831025632   -1.0421697690
H        2.6123742929    0.9668874066    0.3578470193
17   

C        6.1992288090   -0.1559831852   -0.3371969810
C        5.0916882610   -1.1108512265   -0.3862459378
C        5.9370160711    1.1430943126    0.0208505108
C        3.8129150645   -0.7479914620   -0.0658629252
C        4.5790731096    1.5338984036    0.3423216572
C        2.6433006371   -1.7024542371   -0.1830686826
C        1.5192704777   -1.4027241905   -1.1643572724
N        3.5669479228    0.6034583490    0.2828827931
O        4.3002415935    2.6786244657    0.6512704048
O        2.4842602734   -2.5917580194    0.6338754262
H        7.2093639870   -0.4692112564   -0.5807397813
H        5.2924774384   -2.1364187066   -0.6795248810
H        6.7130216490    1.8941442358    0.0738121222
H        1.7919070513   -1.7841628953   -2.1518987646
H        1.3502007136   -0.3255712852   -1.2352506584
H        0.5959364070   -1.8886722616   -0.8370484870
H        2.6609087037    0.9457817525    0.5794978157
17   

C        6.1504563404   -0.1305797284   -0.4545307543
C        5.0176085293   -1.0558283334   -0.4961741938
C        5.9448324245    1.1465285415    0.0052453098
C        3.7670383238   -0.6799469887   -0.0927472970
C        4.6202947784    1.5441459013    0.4387992962
C        2.5672923993   -1.6092903455   -0.1280453662
C        1.6352293079   -1.5977799658   -1.3289037135
N        3.5813763534    0.6440384684    0.3744904033
O        4.3951396514    2.6679778591    0.8511559099
O        2.3018030336   -2.3047498404    0.8352369586
H        7.1360948113   -0.4490027487   -0.7784072751
H        5.1790250417   -2.0691553077   -0.8492847845
H        6.7424114306    1.8743542887    0.0617231170
H        2.1056382334   -2.1282513886   -2.1608040027
H        1.4315191151   -0.5674548256   -1.6317703975
H        0.6919024497   -2.0900297580   -1.0763895627
H        2.7072683201    0.9746146652    0.7660705299
17   

C        6.0831794902   -0.0515930415   -0.5977111795
C        4.9153904775   -0.9320337403   -0.6467508212
C        5.9518582318    1.1906310477   -0.0283417531
C        3.6942522182   -0.5328527904   -0.1762688428
C        4.6694902435    1.5967876980    0.5113172218
C        2.4901168763   -1.4522332948   -0.1241555236
C        1.9160306192   -2.0330294481   -1.4077028310
N        3.5919731820    0.7453400470    0.4238897028
O        4.5180250871    2.6826184210    1.0423142966
O        2.1296882091   -1.9088465759    0.9467050932
H        7.0387117751   -0.3778207107   -0.9955620903
H        5.0319137779   -1.9305930963   -1.0545883813
H        6.7797592386    1.8822638132    0.0441136144
H        2.7170076982   -2.2442263413   -2.1202254217
H        1.2247736435   -1.3128255062   -1.8531332050
H        1.3764534448   -2.9592493483   -1.1915180665
H        2.7590795679    1.0552814064    0.9113316853
17   

C        6.0148583800   -0.0062234441   -0.7115374785
C        4.8362524857   -0.8712264875   -0.7783134840
C        5.9152531180    1.2007311181   -0.0653735547
C        3.6299478674   -0.4837633315   -0.2568374593
C        4.6540272375    1.5879315905    0.5341065815
C        2.4285075552   -1.3949924198   -0.1932650926
C        1.9893907846   -2.1960790967   -1.4118074868
N        3.5623503036    0.7582318615    0.4194958220
O        4.5358603903    2.6361246042    1.1434776192
O        1.9368128236   -1.6581980057    0.8929816472
H        6.9555362537   -0.3182979159   -1.1536932688
H        4.9421882289   -1.8482799892   -1.2365733736
H        6.7539747163    1.8768301063    0.0265229570
H        2.8532057352   -2.5275505852   -1.9916817905
H        1.3559173203   -1.5699431624   -2.0455806602
H        1.4183685486   -3.0733867433   -1.0953036263
H        2.7488607841    1.0354927982    0.9576952858
17   

C        5.9795691078    0.0335293680   -0.7635428739
C        4.7850138696   -0.8075839255   -0.8528403173
C        5.9170671619    1.2002509695   -0.0435874720
C        3.5972790777   -0.4367718741   -0.2765392429
C        4.6777912419    1.5703961602    0.6089688287
C        2.3735758340   -1.3102375635   -0.2338681400
C        2.0197186487   -2.2359148613   -1.3903610296
N        3.5701787672    0.7660381648    0.4706053304
O        4.5938337064    2.5805319840    1.2847098578
O        1.7457838108   -1.4009038984    0.8119685009
H        6.9034970331   -0.2650471139   -1.2482954717
H        4.8666472865   -1.7513775676   -1.3796597998
H        6.7691379679    1.8565072947    0.0673699328
H        2.8798562334   -2.8459420529   -1.6737427726
H        1.6997803250   -1.6394647401   -2.2488448646
H        1.2016718626   -2.9000744201   -1.0971704759
H        2.7690117434    1.0218566643    1.0380786130
17   

C        5.9502675063    0.0838738303   -0.8286882781
C        4.7376686839   -0.7309315204   -0.9200157073
C        5.9388415234    1.2040538823   -0.0358357731
C        3.5838576038   -0.3849710869   -0.2639081742
C        4.7341178332    1.5530465637    0.6890478153
C        2.3375478922   -1.2189739994   -0.2410791133
C        2.0390518395   -2.2291829207   -1.3398821722
N        3.6094289645    0.7726201691    0.5518096671
O        4.6953387171    2.5239385498    1.4238571125
O        1.6022919691   -1.1609443702    0.7366537706
H        6.8472605891   -0.1968066699   -1.3712744548
H        4.7742016970   -1.6339740627   -1.5190728222
H        6.8060073848    1.8397025118    0.0781248147
H        2.7903154320   -3.0226635146   -1.3332418982
H        2.0449605849   -1.7287168752   -2.3117862884
H        1.0530230010   -2.6737577783   -1.1774266686
H        2.8240945234    1.0162155284    1.1468585282
17   

C        5.9213973110    0.1137344217   -0.8343041631
C        4.7104396486   -0.6967258578   -0.9751631210
C        5.9203707151    1.1604201314    0.0533111897
C        3.5717258454   -0.4260322904   -0.2598670717
C        4.7276696686    1.4388081649    0.8266497265
C        2.3128572554   -1.2359473146   -0.3117005409
C        2.0916793906   -2.2970971845   -1.3805056906
N        3.6075660270    0.6601356977    0.6487728965
O        4.6952620204    2.3488076898    1.6359388154
O        1.4661278265   -1.0745732063    0.5597979753
H        6.8082999273   -0.1112891113   -1.4178713001
H        4.7357779567   -1.5331517811   -1.6647199871
H        6.7858876032    1.7905724397    0.2043278035
H        2.8260069248   -3.0985135413   -1.2664923854
H        2.1903879365   -1.8490403553   -2.3727048957
H        1.0877073232   -2.7197798679   -1.2820552995
H        2.8155618783    0.8692128260    1.2485696706
17   

C        5.9368578412    0.0968569823   -0.8680473393
C        4.7048948049   -0.6775506742   -1.0288789046
C        5.9794922599    1.0878034508    0.0804132502
C        3.5948888381   -0.4396215293   -0.2587513919
C        4.8110674118    1.3443253920    0.8970162772
C        2.2999404417   -1.1843748567   -0.3600517874
C        2.1025308254   -2.3101231895   -1.3656440042
N        3.6753594897    0.5908653063    0.7100472600
O        4.8120257862    2.2155214769    1.7485604473
O        1.3782794544   -0.8762857794    0.3874910119
H        6.8036266393   -0.1080674869   -1.4881275538
H        4.6894799623   -1.4564335662   -1.7830818565
H        6.8606224400    1.6923882832    0.2450444781
H        2.8228711578   -3.1094856004   -1.1735856635
H        2.2407319900   -1.9291346045   -2.3807803173
H        1.0909881855   -2.7161815148   -1.2749201713
H        2.8848858781    0.8109927742    1.3080686751
