24   

C       -2.3375651222   -2.2523546022    1.5195067360
C       -4.1284787688    1.8600274514    2.3107418240
C       -4.6385758781   -0.4635433965    2.6506509368
C       -5.3741892108    2.2119858845    2.8429070913
C       -5.8856779531   -0.1054313782    3.1767469813
C       -3.7276663752    0.5161013628    2.1948076918
C       -6.2666256059    1.2324399147    3.2776410828
C       -2.3901561634    0.2463690032    1.6059995528
C       -0.3696257212   -1.0527428876    0.8011800953
C       -1.7355851253   -0.9573049848    1.3446762704
C        1.6313298810    1.8713509219    1.1446183804
N       -2.7847909052   -3.3213752051    1.6388966326
N        0.5973867405   -0.2022592971    0.7263207960
O        0.4439253766    1.0907186047    1.2804448403
Cl      -7.8241021771    1.6703971558    3.9345482125
H       -3.4660653186    2.6533841263    1.9837052055
H       -4.4349130493   -1.5220777759    2.6226598333
H       -5.6555372230    3.2556819547    2.9197902346
H       -6.5683195535   -0.8779598170    3.5118587830
H       -1.8740116472    1.1459730434    1.3042170107
H       -0.0963288403   -2.0275017606    0.4114589909
H        1.4455878974    2.8893776864    1.4988408936
H        1.9397906681    1.9140213213    0.0954523644
H        2.4392137943    1.4324942796    1.7377974662
24   

C       -2.2844868117   -2.2454691416    1.5651327103
C       -4.1940639564    1.8551063438    2.1710911678
C       -4.5885735198   -0.4540630416    2.7077635273
C       -5.4168986432    2.2008348825    2.7578027722
C       -5.8124999392   -0.1026366396    3.2897214081
C       -3.7486879515    0.5214422399    2.1253111511
C       -6.2395174824    1.2248746582    3.3202054156
C       -2.4422210869    0.2540570940    1.4720704498
C       -0.4373548208   -1.0072448735    0.6072751960
C       -1.7708317108   -0.9438636456    1.2377005839
C        1.6299240596    1.7783690465    1.3660859743
N       -2.6660229113   -3.3193372826    1.8064968803
N        0.5489456292   -0.1778049219    0.6231290584
O        0.4154488767    1.0282262356    1.3536752718
Cl      -7.7678674280    1.6546831739    4.0471887910
H       -3.5855742540    2.6442756794    1.7443672456
H       -4.3428337450   -1.5036849322    2.7402141523
H       -5.7349682490    3.2365926211    2.7778663767
H       -6.4402857993   -0.8720166459    3.7245241103
H       -1.9579023351    1.1408326992    1.0837693230
H       -0.2028614219   -1.9417118543    0.1092071275
H        1.4650506854    2.7387277301    1.8629325225
H        1.9714462669    1.9646265850    0.3431527442
H        2.4055377456    1.2286557630    1.9077619681
24   

C       -2.2014762762   -2.2074926695    1.6283605722
C       -4.2564167575    1.8499055118    2.0969039689
C       -4.5706515940   -0.4517785694    2.7137603048
C       -5.4599625938    2.1840356725    2.7284207389
C       -5.7737986088   -0.1115646183    3.3437686391
C       -3.7805762832    0.5265084722    2.0703065770
C       -6.2308623300    1.2063399985    3.3573793038
C       -2.4976723929    0.2700673819    1.3697778701
C       -0.5021179045   -0.9380206954    0.4388648750
C       -1.8013247417   -0.9149542721    1.1508452071
C        1.6247777115    1.6730734302    1.5381178203
N       -2.4961589945   -3.2746553086    1.9908043221
N        0.5031068940   -0.1406384770    0.5380601091
O        0.3888095528    0.9703700487    1.4102159807
Cl      -7.7332783459    1.6221851529    4.1440658888
H       -3.6874425974    2.6395720059    1.6195526672
H       -4.2998313820   -1.4949120461    2.7575072070
H       -5.8030252381    3.2119859915    2.7322079724
H       -6.3616223123   -0.8820961895    3.8293981393
H       -2.0427554073    1.1511107604    0.9322363114
H       -0.3075973196   -1.8226468919   -0.1572106272
H        1.4863408995    2.5495429189    2.1776015289
H        1.9751152545    2.0046458856    0.5557964780
H        2.3822516662    1.0238194781    1.9875605458
24   

C       -2.0782022028   -2.1270413610    1.6999928338
C       -4.3209024002    1.8475581997    2.0208496973
C       -4.5339714186   -0.4425303197    2.7196000848
C       -5.5126036499    2.1615414875    2.6842525812
C       -5.7238531825   -0.1218496484    3.3841867709
C       -3.8002434639    0.5410598647    2.0206640326
C       -6.2251594490    1.1800661464    3.3734222298
C       -2.5339815419    0.3039436238    1.2856722159
C       -0.5399750684   -0.8445091345    0.2985601235
C       -1.8025910781   -0.8618576309    1.0870999530
C        1.6707073386    1.5442524518    1.6785111612
N       -2.2778406230   -3.1726990611    2.1731163136
N        0.4930966750   -0.1014586829    0.4732040384
O        0.4140952203    0.8984248528    1.4746898240
Cl      -7.7108851706    1.5716245097    4.2030830807
H       -3.7972314900    2.6392012703    1.4971698894
H       -4.2267415999   -1.4748837999    2.7803013873
H       -5.8917319767    3.1766074016    2.6664473599
H       -6.2664637215   -0.8950189990    3.9160076112
H       -2.1157145672    1.1814400709    0.8048732375
H       -0.4008831374   -1.6618533922   -0.3998011377
H        1.5771905629    2.2915091372    2.4716936205
H        1.9914824149    2.0431548793    0.7589206593
H        2.4292498610    0.8118138683    1.9711660667
24   

C       -1.9593587537   -1.9841903262    1.7756269911
C       -4.4617685724    1.8452867826    1.8971417968
C       -4.4920449961   -0.3952692227    2.7675352155
C       -5.6483485139    2.1285060048    2.5831957331
C       -5.6766171930   -0.1048414736    3.4551118290
C       -3.8528355910    0.5797023965    1.9708120518
C       -6.2665244057    1.1566393778    3.3702206471
C       -2.6000932053    0.3712673764    1.2052109932
C       -0.5913677596   -0.7076714819    0.1827039262
C       -1.8084924971   -0.7598974629    1.0500869482
C        1.7804401908    1.3455093313    1.7992088956
N       -2.0628537435   -2.9973352735    2.3413836038
N        0.4870932254   -0.0532008256    0.4128416858
O        0.4875521571    0.7948305416    1.5486144842
Cl      -7.7451375169    1.5104832374    4.2290164293
H       -4.0131171457    2.6281662296    1.2963560413
H       -4.1116066102   -1.3974199857    2.8899998792
H       -6.0973367551    3.1118644336    2.5067025703
H       -6.1450862587   -0.8699030661    4.0636012700
H       -2.2471484924    1.2386966009    0.6581050441
H       -0.5491580072   -1.4131843027   -0.6388976409
H        1.7631615064    1.9183934045    2.7307501146
H        2.0702317640    2.0106460551    0.9801537521
H        2.5225345096    0.5463567384    1.8904337147
24   

C       -1.8204039539   -1.7665053661    1.8704163927
C       -4.7137568491    1.7777010922    1.7018083397
C       -4.4389072085   -0.3151590795    2.8519807128
C       -5.8938952118    2.0157251219    2.4155309064
C       -5.6193569786   -0.0708591239    3.5641551336
C       -3.9566268269    0.6089042886    1.8994020048
C       -6.3580938578    1.0938593376    3.3539513344
C       -2.7212734082    0.4431577244    1.0958676075
C       -0.6367086240   -0.5113007818    0.1076312839
C       -1.7989260670   -0.5941815260    1.0501650071
C        1.9805577324    1.0623368622    1.8711404488
N       -1.8226630970   -2.7375561959    2.5142924698
N        0.4983718764    0.0267339744    0.3584962557
O        0.6407660235    0.6326583507    1.6320185015
Cl      -7.8296657343    1.3910549359    4.2456650590
H       -4.3875739601    2.5199891084    0.9822919181
H       -3.9349628539   -1.2408952096    3.0822439726
H       -6.4582448411    2.9246056638    2.2425486409
H       -5.9668507060   -0.7957612018    4.2913608057
H       -2.4961187992    1.2677924435    0.4286495130
H       -0.7530894746   -0.9829665374   -0.8609406174
H        2.0617759160    1.4697163166    2.8829335043
H        2.2596989127    1.8397144413    1.1535002692
H        2.6719396992    0.2197691116    1.7733592580
24   

C       -1.6789809878   -1.4939832064    1.9678020214
C       -4.9959032458    1.6191438446    1.5011756079
C       -4.3760892960   -0.1992607156    2.9460732791
C       -6.1719758068    1.8039055704    2.2369453601
C       -5.5558651406   -0.0117394290    3.6763999405
C       -4.0697850143    0.6135613524    1.8327768915
C       -6.4644225084    0.9889849406    3.3306297473
C       -2.8494903680    0.4972905255    0.9978787424
C       -0.6615269247   -0.2592715571    0.0810745943
C       -1.7741845763   -0.3789471581    1.0744385095
C        2.2074935237    0.7388889340    1.8789528651
N       -1.5904937647   -2.4176016933    2.6727528621
N        0.5292294732    0.1428865108    0.3309301293
O        0.8228214873    0.4564614972    1.6820658088
Cl      -7.9325483333    1.2180722486    4.2477426164
H       -4.8064705826    2.2756233908    0.6596402519
H       -3.7301465921   -0.9907341548    3.2931073216
H       -6.8674652320    2.5875751284    1.9600452898
H       -5.7683715294   -0.6511899370    4.5255224807
H       -2.7685862074    1.2361824100    0.2084996839
H       -0.9108421920   -0.4135975092   -0.9620335814
H        2.3848208072    0.9961869566    2.9271304805
H        2.5138439352    1.5815357118    1.2517100779
H        2.8110865131   -0.1370995972    1.6230765259
24   

C       -2.2439047991   -2.3543558026    1.8998735438
C       -4.2731695991    1.7196441739    1.5833920671
C       -4.3838554713   -0.2842784334    2.9065178523
C       -5.3859752728    2.2298964160    2.2614261315
C       -5.5002253100    0.2293034896    3.5777442190
C       -3.7459846337    0.4502053972    1.8830347808
C       -6.0123919998    1.4883863263    3.2631038922
C       -2.5612988097   -0.0031992369    1.1143308984
C       -0.6748079127   -1.3588787566    0.2536256830
C       -1.8425303048   -1.1919826809    1.1630587128
C        2.0341662154   -2.5762769652    2.1710738346
N       -2.5683259274   -3.3135102512    2.4769440848
N        0.5147122748   -1.7077308038    0.5856394239
O        0.7477257572   -1.9993787982    1.9534639729
Cl      -7.4030757990    2.1233778833    4.1067469890
H       -3.8162172371    2.3296564150    0.8126239077
H       -4.0498205211   -1.2587815052    3.2276789100
H       -5.7704515699    3.2117417166    2.0110007469
H       -5.9745018996   -0.3570291160    4.3564125457
H       -2.1752993945    0.7273114271    0.4122408737
H       -0.7980649486   -1.0248344428   -0.7697912610
H        2.1752281744   -2.7665071291    3.2389088981
H        2.8169689427   -1.8934235552    1.8273249170
H        2.1195028912   -3.5229793412    1.6292803387
24   

C       -2.0704835847   -2.1765831022    2.0973384390
C       -4.3910594639    1.6979416209    1.5157923096
C       -4.3517535811   -0.2101336748    2.9771462576
C       -5.5424356239    2.1673821782    2.1577717582
C       -5.5071284074    0.2618927219    3.6120401456
C       -3.7683686875    0.4970197584    1.9029731834
C       -6.1137246913    1.4522681046    3.2101217602
C       -2.5497856802    0.0847348192    1.1635616370
C       -0.5779881383   -1.1589223108    0.3723664611
C       -1.7447115288   -1.0443273593    1.2781984468
C        2.0639466867   -2.8405409770    2.0267709601
N       -2.3362992250   -3.1104146548    2.7423211911
N        0.5878657615   -1.6353078195    0.6300090262
O        0.8393055083   -2.1143722388    1.9401950833
Cl      -7.5525866369    2.0359500271    4.0088191734
H       -3.9805590957    2.2858046457    0.7028303348
H       -3.9453396058   -1.1303943261    3.3671435752
H       -6.0005875772    3.0964260704    1.8390781183
H       -5.9379055626   -0.3028978611    4.4308765624
H       -2.2220427224    0.7992410781    0.4168188610
H       -0.6754047298   -0.6943745263   -0.6017868054
H        2.1982957902   -3.2123154516    3.0466366457
H        2.9061094678   -2.1895619579    1.7737011899
H        2.0481019897   -3.6920390463    1.3398994629
24   

C       -1.9331843839   -2.0117265858    2.3022586233
C       -4.4546557058    1.6850500104    1.4837238576
C       -4.3563224043   -0.1587736139    3.0222283222
C       -5.6387742303    2.1256390492    2.0851116081
C       -5.5439427290    0.2846816276    3.6171095203
C       -3.7837371273    0.5315560220    1.9311242619
C       -6.1965347781    1.4283139990    3.1562223243
C       -2.5334466976    0.1497195987    1.2273485657
C       -0.4981836799   -1.0008384557    0.5017708120
C       -1.6683757304   -0.9290097054    1.3971401852
C        2.0865228870   -3.0258619095    1.8565262335
N       -2.1511295262   -2.9042535593    3.0199335837
N        0.6362471710   -1.5849676878    0.6701434873
O        0.8890428363   -2.2521027226    1.8942983557
Cl      -7.6757080859    1.9762665612    3.9050164959
H       -4.0573013342    2.2583541636    0.6540018597
H       -3.9197488383   -1.0444858197    3.4562567349
H       -6.1333244737    3.0180956101    1.7196466174
H       -5.9643432123   -0.2661890563    4.4506979878
H       -2.2407357470    0.8474570960    0.4508514721
H       -0.5664891033   -0.4295904043   -0.4165349644
H        2.2058882154   -3.5619265315    2.8024793593
H        2.9515297921   -2.3726120768    1.7083390419
H        2.0413175617   -3.7542593375    1.0413769042
24   

C       -3.0037669818   -1.9072035395    0.4048070009
C       -4.0618557560    2.0851305503    2.3031550227
C       -4.5763459640   -0.2496247509    2.5461116981
C       -4.9574610947    2.3914407745    3.3336220310
C       -5.4731655342    0.0635531798    3.5750464836
C       -3.8475100039    0.7600285153    1.8790384923
C       -5.6731772037    1.3836866215    3.9788756501
C       -2.8742490051    0.5439794353    0.7776651818
C       -1.4551786517   -0.4364430594   -0.9468528024
C       -2.4541737722   -0.6113352694    0.1190144262
C       -0.0626533906   -3.4973566833   -2.1183067360
N       -3.4558520822   -2.9594381262    0.6237262640
N       -0.7349434441   -1.2952464606   -1.5813668447
O       -0.8267654216   -2.6679778102   -1.2454116271
Cl      -6.7921355214    1.7656914929    5.2637482096
H       -3.5276689720    2.9013462474    1.8304629953
H       -4.4863000176   -1.2984240091    2.3122594978
H       -5.1014773063    3.4213421656    3.6389123241
H       -6.0214591602   -0.7307506596    4.0685455720
H       -2.4055967927    1.4592693246    0.4343194078
H       -1.2589430862    0.5865398508   -1.2454346163
H       -0.2081562559   -4.5466990454   -1.8459236316
H        1.0005427973   -3.2539121004   -2.0333050245
H       -0.3836745740   -3.3537010906   -3.1543241110
24   

C       -2.8064510763   -1.9340898269    0.6016928390
C       -4.1005821062    2.0891615028    2.2728722369
C       -4.5687927028   -0.2494549228    2.5658907181
C       -5.0370946495    2.4026640280    3.2640246627
C       -5.5048857952    0.0707302628    3.5570179435
C       -3.8397615270    0.7580845473    1.8956682321
C       -5.7487013430    1.3964054720    3.9159713596
C       -2.8260384815    0.5361317264    0.8321666457
C       -1.3163649093   -0.4483061282   -0.8066626124
C       -2.3401342554   -0.6264459398    0.2329625435
C       -0.1534758858   -3.4866488329   -2.2637575460
N       -3.1822282510   -2.9974094676    0.8979616047
N       -0.6806834443   -1.3002315620   -1.5344412011
O       -0.9399046702   -2.6842558249   -1.3855915827
Cl      -6.9175863170    1.7871969271    5.1528509112
H       -3.5714775645    2.9048096232    1.7935303571
H       -4.4525384354   -1.3016299318    2.3612116965
H       -5.2165281274    3.4370961964    3.5331013810
H       -6.0505313745   -0.7224104886    4.0553067038
H       -2.3904659577    1.4566317046    0.4605120097
H       -1.0303014904    0.5760338443   -1.0139346015
H       -0.4019200782   -4.5415741848   -2.1157426640
H        0.9107226545   -3.3415173191   -2.0556138059
H       -0.3572516838   -3.2182169281   -3.3046073950
24   

C       -2.6037150066   -1.9405237091    0.7925119273
C       -4.1288898810    2.0903441783    2.2375547408
C       -4.5528487288   -0.2517458755    2.5687183996
C       -5.1059130533    2.4034493154    3.1889656288
C       -5.5277958174    0.0679589514    3.5217947166
C       -3.8231837413    0.7577312842    1.9022727784
C       -5.8141520558    1.3951890672    3.8416294402
C       -2.7699887140    0.5350738660    0.8784616726
C       -1.1717387396   -0.4595188385   -0.6722969044
C       -2.2227508215   -0.6306577548    0.3430446736
C       -0.3008243804   -3.4776926879   -2.3496263967
N       -2.8998298897   -3.0057616699    1.1627718148
N       -0.6315431738   -1.3036699054   -1.4813762099
O       -1.0809410681   -2.6466581807   -1.4926009354
Cl      -7.0323605267    1.7854899319    5.0301276780
H       -3.6038085244    2.9072397844    1.7559182253
H       -4.4099923000   -1.3048803976    2.3863348110
H       -5.3198649491    3.4390985377    3.4262307516
H       -6.0713812330   -0.7266469197    4.0199964761
H       -2.3628954430    1.4554652767    0.4754360482
H       -0.7922071390    0.5482501971   -0.7927648213
H       -0.6572544056   -4.5096041396   -2.2818016702
H        0.7513846988   -3.4472583132   -2.0513702095
H       -0.3916498455   -3.1394056089   -3.3860562852
24   

C       -2.3822467273   -1.9342920784    0.9819202827
C       -4.1496704168    2.0772586544    2.1943717702
C       -4.5111191383   -0.2692373741    2.5681204805
C       -5.1674795318    2.3806479240    3.1053937162
C       -5.5256595467    0.0407982971    3.4822076667
C       -3.7905952297    0.7478110461    1.9037621079
C       -5.8637917513    1.3653656106    3.7603806791
C       -2.6990725703    0.5319532251    0.9207633099
C       -1.0146782546   -0.4750098126   -0.5425437729
C       -2.0923631645   -0.6314481071    0.4525429521
C       -0.4938665707   -3.4498952618   -2.4119259094
N       -2.5973642572   -2.9927854759    1.4206393761
N       -0.5810479191   -1.3027337013   -1.4276379628
O       -1.2097046290   -2.5665002363   -1.5509527007
Cl      -7.1318691470    1.7437298716    4.8995580128
H       -3.6351770798    2.8984936431    1.7087036616
H       -4.3315282510   -1.3209588001    2.4095820647
H       -5.4228936744    3.4140415726    3.3090671375
H       -6.0602224639   -0.7591096468    3.9816618378
H       -2.3187887584    1.4487144869    0.4844192810
H       -0.5471318233    0.5015436623   -0.5874609742
H       -0.9934472802   -4.4226764234   -2.4354810206
H        0.5288192594   -3.5870616098   -2.0481106421
H       -0.4635628250   -3.0429568690   -3.4270263694
24   

C       -2.1693763200   -1.9215364679    1.1806625953
C       -4.1794524196    2.0576954305    2.1125187925
C       -4.4464997224   -0.2834338077    2.5874481673
C       -5.2400164433    2.3549886941    2.9756521962
C       -5.5035581964    0.0207544203    3.4539970986
C       -3.7511021074    0.7345540445    1.8986784124
C       -5.9105033849    1.3396597452    3.6573614834
C       -2.6203045970    0.5208195380    0.9619872909
C       -0.8439075396   -0.5089418113   -0.3960750777
C       -1.9560263726   -0.6386659650    0.5740871196
C       -0.7201892115   -3.3775652749   -2.4701410578
N       -2.3190484146   -2.9636241084    1.6810205820
N       -0.5247051474   -1.3040526962   -1.3544188793
O       -1.3175615210   -2.4620248390   -1.5539064663
Cl      -7.2315433326    1.7107396811    4.7372178810
H       -3.6868922207    2.8778171800    1.6028255460
H       -4.2136216027   -1.3316730417    2.4823174258
H       -5.5494217829    3.3835039158    3.1206224537
H       -6.0175135825   -0.7792249303    3.9745124653
H       -2.2641699010    1.4265314477    0.4840569522
H       -0.2842553929    0.4185646869   -0.3679338104
H       -1.3525666649   -4.2648195637   -2.5664330792
H        0.2660376471   -3.6845106914   -2.1092616370
H       -0.6141663146   -2.9102404312   -3.4537157453
24   

C       -1.9618382707   -1.9123904372    1.4231887960
C       -4.2098886533    2.0167535570    1.9901490616
C       -4.3613211353   -0.2914531352    2.6441989434
C       -5.3107815071    2.3192445849    2.7994550599
C       -5.4590844201    0.0182634709    3.4563405826
C       -3.7033093251    0.7077916868    1.8942186432
C       -5.9442501450    1.3235128632    3.5429714305
C       -2.5361367485    0.4836975396    1.0067335775
C       -0.6713298334   -0.5808436197   -0.2283932748
C       -1.8111469812   -0.6687101956    0.7262932735
C       -0.9782196619   -3.2381806165   -2.5394635596
N       -2.0584385567   -2.9235134710    1.9946245858
N       -0.4720696734   -1.3200230093   -1.2584505560
O       -1.4100372818   -2.3538853115   -1.5066698699
Cl      -7.3156659805    1.7013865380    4.5555834647
H       -3.7482156351    2.8205986363    1.4282844956
H       -4.0666260342   -1.3293645869    2.6286574756
H       -5.6810518623    3.3363631294    2.8535154094
H       -5.9433842150   -0.7667405043    4.0257920646
H       -2.2084542081    1.3640778743    0.4653221810
H       -0.0129177746    0.2740381449   -0.1292366248
H       -1.7366170603   -4.0090828509   -2.7034765181
H       -0.0391019761   -3.7215796268   -2.2540407657
H       -0.8290923205   -2.6850873029   -3.4717024581
24   

C       -2.7750763730   -1.6415483457    0.1851310177
C       -3.6708491962    1.5632133654    3.3221694852
C       -4.8006271668   -0.1615465451    2.0863542504
C       -4.8596463288    1.8576902106    3.9994412884
C       -5.9862139883    0.1354873353    2.7694097179
C       -3.6081857539    0.5466840468    2.3518032724
C       -6.0285773456    1.1454437663    3.7310000768
C       -2.3053902869    0.3107137309    1.6833451367
C       -0.5259410879   -0.6120492509    0.2060571793
C       -1.9375490094   -0.6014390722    0.7022061101
C       -0.6264586035    0.4088994762   -3.1715988955
N       -3.4334874690   -2.5064156993   -0.2348219063
N       -0.1358068793   -0.2412133178   -0.9569651526
O       -1.1448212028    0.1707852936   -1.8637510066
Cl      -7.5115652489    1.5114543988    4.5770246800
H       -2.7858066010    2.1421999856    3.5598729701
H       -4.8661344705   -0.9516515522    1.3545635300
H       -4.8797760411    2.6473135126    4.7414709993
H       -6.8873724686   -0.4249691832    2.5483491116
H       -1.5096656188    0.9788687409    1.9932101103
H        0.2502589410   -0.8417885134    0.9263225860
H       -1.4327081947    0.7412463073   -3.8317728477
H       -0.1926080852   -0.5095403130   -3.5782989137
H        0.1440848907    1.1850296041   -3.1367015673
24   

C       -2.7790387869   -1.9152037591    0.3546117579
C       -3.6953211008    1.7219457749    2.9806384403
C       -4.7588738967   -0.2798931863    2.1806169534
C       -4.8624790550    2.0666403601    3.6717972826
C       -5.9242622244    0.0709362916    2.8728110919
C       -3.6116253584    0.5424167524    2.2190131159
C       -5.9885214304    1.2446085157    3.6243897087
C       -2.3330294064    0.2600159223    1.5228933450
C       -0.5583397116   -0.8588911705    0.1693292580
C       -1.9458142884   -0.8154070930    0.7339882373
C       -0.6996152632    0.7417464887   -2.9698169654
N       -3.4308139206   -2.8296480802    0.0439674391
N       -0.1841475263   -0.3502671353   -0.9450962576
O       -1.1720152129    0.3510794316   -1.6810012832
Cl      -7.4453899468    1.6749605017    4.4853963784
H       -2.8429556834    2.3887749024    3.0431243849
H       -4.8027742440   -1.2040926370    1.6257225130
H       -4.8989946927    2.9812666517    4.2519731405
H       -6.7919612801   -0.5770649185    2.8253366363
H       -1.5671716961    1.0173029384    1.6488949466
H        0.1879288348   -1.4027893110    0.7362534716
H       -1.5071390372    1.2248381899   -3.5273185945
H       -0.3587965238   -0.1342442856   -3.5301522215
H        0.1307893196    1.4469176690   -2.8678462620
24   

C       -2.7784924222   -2.1329244016    0.5281639594
C       -3.7275836249    1.7934746440    2.6787555443
C       -4.7120765698   -0.3618466189    2.2738971009
C       -4.8674781377    2.1807819063    3.3925427991
C       -5.8516257868    0.0326525464    2.9853285890
C       -3.6192329809    0.5155987135    2.1014760200
C       -5.9413180558    1.3046227764    3.5515200621
C       -2.3710971993    0.1933912679    1.3684138957
C       -0.6171275668   -1.0473501612    0.0925855276
C       -1.9609721403   -0.9785651576    0.7450245941
C       -0.7131213417    1.0254443541   -2.7616952516
N       -3.4144569017   -3.0919897040    0.3465042095
N       -0.2442146510   -0.4224458250   -0.9631557509
O       -1.1598698596    0.5132699799   -1.5064304736
Cl      -7.3650170910    1.7884429661    4.4392344867
H       -2.9151082410    2.5040275586    2.5781199085
H       -4.7313460736   -1.3639606524    1.8746278288
H       -4.9232419139    3.1710586803    3.8292137570
H       -6.6786894531   -0.6586692586    3.0997087474
H       -1.6448082657    0.9976551300    1.3237776940
H        0.0571849852   -1.8176979723    0.4481492657
H       -1.4819965945    1.6748869240   -3.1898527492
H       -0.5166835746    0.2047460798   -3.4584942013
H        0.2043508899    1.6058399356   -2.6251971787
24   

C       -2.7938317289   -2.2821252747    0.6732330714
C       -3.7697995860    1.8041637784    2.4840618863
C       -4.6947530594   -0.4101112182    2.3438212028
C       -4.8890487363    2.2264160295    3.2105655603
C       -5.8135986685    0.0188418283    3.0680658504
C       -3.6426339482    0.4786100020    2.0315762742
C       -5.9225398287    1.3381230210    3.5085941486
C       -2.4182922145    0.1236755928    1.2734453973
C       -0.7136005239   -1.1923728431   -0.0040303020
C       -2.0063385797   -1.0866337586    0.7267614363
C       -0.6360357951    1.2017600460   -2.6038567485
N       -3.4021382062   -3.2742279374    0.6203845747
N       -0.3019883649   -0.4844557437   -0.9935787822
O       -1.1187961825    0.5990268105   -1.4032845887
Cl      -7.3202500169    1.8649169424    4.4129891765
H       -2.9887439511    2.5256565209    2.2729364038
H       -4.6966800136   -1.4478947220    2.0491054840
H       -4.9601111685    3.2536802876    3.5483426223
H       -6.6090672564   -0.6827200109    3.2918702177
H       -1.7155875905    0.9382932270    1.1366417656
H       -0.1152612051   -2.0711863796    0.2075975042
H       -1.3038131824    2.0146930059   -2.9030058687
H       -0.5974440266    0.4620847732   -3.4093999273
H        0.3670102944    1.6089389292   -2.4440354024
24   

C       -2.7889644805   -2.3645686435    0.7919289066
C       -3.8048766681    1.8038878765    2.3716841724
C       -4.6992243956   -0.4270464985    2.3637881930
C       -4.9017339414    2.2415510037    3.1228978447
C       -5.7941464426    0.0165964933    3.1151743301
C       -3.6726469877    0.4613024671    1.9735479506
C       -5.9068846797    1.3519822738    3.5024833336
C       -2.4708241096    0.0922585591    1.1849839234
C       -0.8159179975   -1.2735207655   -0.1204371556
C       -2.0577708428   -1.1355286286    0.6758838724
C       -0.5094786566    1.3306974453   -2.5028142369
N       -3.3477885301   -3.3835832737    0.8717183753
N       -0.3458310392   -0.5129112420   -1.0460099146
O       -1.0573588392    0.6712891621   -1.3614298343
Cl      -7.2749457301    1.8970249780    4.4407864481
H       -3.0455579097    2.5273020889    2.0973143542
H       -4.7004326580   -1.4758494788    2.1120147359
H       -4.9771302974    3.2819264021    3.4167034876
H       -6.5679176827   -0.6862495667    3.4021854550
H       -1.7888964527    0.9136418508    0.9981898288
H       -0.2858578123   -2.2126752872   -0.0076285790
H       -1.0543197640    2.2607646876   -2.6883610534
H       -0.5945714169    0.6892701657   -3.3852162217
H        0.5453965726    1.5674006021   -2.3330196397
24   

C       -2.7815145362   -2.3991857624    0.9062001447
C       -3.8490746133    1.8150177281    2.2950550845
C       -4.7193041962   -0.4236778465    2.3778536431
C       -4.9160581405    2.2594437229    3.0844323461
C       -5.7821413332    0.0260814573    3.1704865723
C       -3.7181743268    0.4642397456    1.9244046167
C       -5.8914505364    1.3686997800    3.5324060966
C       -2.5457846793    0.0888277259    1.0939488681
C       -0.9450626231   -1.3233069336   -0.2483162967
C       -2.1293498216   -1.1518267352    0.6163826867
C       -0.3577919076    1.4239860926   -2.4200584917
N       -3.2741787679   -3.4324646139    1.1221543687
N       -0.4089312742   -0.5383205065   -1.1185803382
O       -0.9991620483    0.7279502546   -1.3514161213
Cl      -7.2197166933    1.9213593440    4.5220378945
H       -3.1120374372    2.5399946762    1.9689793681
H       -4.7263272322   -1.4767023985    2.1449670315
H       -4.9908483513    3.3060388880    3.3553754750
H       -6.5336675113   -0.6777037650    3.5096166315
H       -1.8928879762    0.9194474569    0.8583439481
H       -0.4840863883   -2.3044855655   -0.2155120351
H       -0.7818497538    2.4278901130   -2.5132256308
H       -0.5086479306    0.8877012031   -3.3617670856
H        0.7157094135    1.5112859497   -2.2259054004
24   

C       -2.7625250196   -2.4233510535    0.9849671145
C       -3.9352843531    1.8079120950    2.1874710877
C       -4.7206373544   -0.4516680544    2.4169276783
C       -4.9681655496    2.2522092295    3.0208878225
C       -5.7478897305   -0.0019311354    3.2552852325
C       -3.7782033588    0.4466514252    1.8675738187
C       -5.8819790142    1.3510144515    3.5666276205
C       -2.6426552161    0.0745281659    0.9845664140
C       -1.0839655371   -1.3696797884   -0.3937241613
C       -2.2076454588   -1.1732093543    0.5384782330
C       -0.1696184449    1.4804501186   -2.3200963724
N       -3.1756841695   -3.4587968674    1.3228927371
N       -0.4793282197   -0.5709315366   -1.2063911282
O       -0.9251859778    0.7651821417   -1.3427004442
Cl      -7.1657112677    1.9035735513    4.6134284200
H       -3.2459819643    2.5420768679    1.7861956326
H       -4.7083406393   -1.5131774238    2.2270028692
H       -5.0639506142    3.3070130729    3.2502010970
H       -6.4520923718   -0.7139516869    3.6702680114
H       -2.0455850869    0.9233231217    0.6844186409
H       -0.6973053572   -2.3820539460   -0.4418701452
H       -0.4737752212    2.5310792158   -2.3245639193
H       -0.3451098610    1.0573176990   -3.3137137043
H        0.8989192873    1.4239188115   -2.0903771542
24   

C       -2.3715542403   -2.2612576559    1.4629268454
C       -4.0654345879    1.8165449290    2.5493233955
C       -4.7181147026   -0.4957459302    2.5172534373
C       -5.3424409149    2.1719956858    2.9978009724
C       -5.9946737131   -0.1334336720    2.9641589030
C       -3.7168105444    0.4766712793    2.2940666669
C       -6.3202384248    1.2005192698    3.2082774970
C       -2.3336623667    0.2081052378    1.8180532277
C       -0.3066549176   -1.1016173049    1.0097831080
C       -1.7047745089   -0.9856679089    1.4557584021
C        1.6027906910    1.9101153555    0.8969262853
N       -2.8641904596   -3.3168744878    1.4499392271
N        0.6380703922   -0.2364984354    0.8541275615
O        0.4308129954    1.1322241764    1.1392034123
Cl      -7.9146316566    1.6434241053    3.7656825834
H       -3.3370602635    2.6052484463    2.3986708984
H       -4.5665345125   -1.5520562149    2.3641775367
H       -5.5809176026    3.2124034845    3.1851734155
H       -6.7442403118   -0.8998983836    3.1245935387
H       -1.7528748156    1.1125366377    1.7462523067
H        0.0122760537   -2.1066334251    0.7545650569
H        1.3976337914    2.9623162144    1.1141244087
H        1.9072013899    1.8187172410   -0.1501608049
H        2.4207650877    1.5699364363    1.5392039370
