28   

C       -0.9864303090    0.3276406781    0.5217253480
C       -2.0409334433   -0.5895520071    0.6208308983
C       -1.7878434586    1.4789604889    2.5031844251
C       -3.9210815156    0.3917739006    3.5397769427
C       -2.8339444042    0.5554035830    2.5899831994
C       -0.8416025470    1.3739989018    1.4579442046
C       -2.9511023904   -0.4560450674    1.6616707290
C       -4.6570454247   -0.7109892841    3.1426344409
C       -5.7902527125   -1.3931287484    3.7610273493
C        1.2176044836    2.2844755309    2.5629081800
C       -0.2032471257    3.7696741785    1.0968235211
C        0.3123452843    2.3470651187    1.3292561678
N       -4.0551453298   -1.2375635853    1.9771121496
O       -6.1773432009   -2.5078616311    3.4361591648
O       -6.3724319439   -0.7090113500    4.7738571219
H       -0.2745528575    0.2218151244   -0.2887737442
H       -2.1447443373   -1.3924840954   -0.0980156324
H       -1.7103709083    2.2651781112    3.2438488017
H       -4.1130630902    0.9999326054    4.4155262487
H        0.6734034197    2.5783879416    3.4654244492
H        2.0726789935    2.9562432289    2.4385674696
H        1.5962975824    1.2663579947    2.6984289499
H       -0.8001169916    4.1145145914    1.9465125401
H       -0.8254263803    3.7997457194    0.1966671008
H        0.6363184294    4.4580737619    0.9587483981
H        0.9162811463    2.0657639887    0.4599783904
H       -4.3670052024   -2.0780266969    1.4945209105
H       -7.0858094856   -1.2860250283    5.0903282919
28   

C       -0.7191888595    0.1396852440    0.7973096154
C       -1.7288347074   -0.8220878415    0.9347569467
C       -1.8743697210    1.5911755678    2.3631892468
C       -4.0728014776    0.5522982142    3.3072384975
C       -2.8724267804    0.6206341098    2.4923667682
C       -0.7737939830    1.3587291997    1.5067736699
C       -2.7943241093   -0.5599104127    1.7866857858
C       -4.6811426212   -0.6639054536    3.0512502774
C       -5.8041141019   -1.3321243718    3.7081728754
C        1.0248091594    2.6519736024    2.6881130823
C       -0.1997043257    3.6673090239    0.7277084607
C        0.3382445908    2.3751302550    1.3471040248
N       -3.8866243096   -1.3556469777    2.1081895036
O       -5.9340257219   -2.5466154377    3.7764410529
O       -6.6703824977   -0.4929075675    4.3225477406
H        0.1148321487   -0.0670283048    0.1365846450
H       -1.6780534551   -1.7580879698    0.3929794886
H       -1.9509685381    2.5107379641    2.9299751000
H       -4.4115947715    1.2917204866    4.0227861801
H        0.3239162885    3.0859002699    3.4074563996
H        1.8561630865    3.3502637999    2.5496912762
H        1.4227509057    1.7211801474    3.1047623434
H       -0.9495216892    4.1301470654    1.3763750602
H       -0.6598162666    3.4537189770   -0.2423244052
H        0.6158690538    4.3805504237    0.5729960190
H        1.0935890959    1.9681347761    0.6664261816
H       -4.0548719971   -2.3101669727    1.7973797398
H       -7.3325046836   -1.0709990961    4.7340755730
28   

C       -0.7446478591    0.1688264900    0.7513379538
C       -1.7605355365   -0.7880602578    0.8772761205
C       -1.8844603701    1.6035333641    2.3434997853
C       -4.0776410552    0.5582784488    3.2905572827
C       -2.8882236734    0.6374904511    2.4614863202
C       -0.7881773243    1.3768535865    1.4801649276
C       -2.8211296247   -0.5322207589    1.7373426025
C       -4.6936213610   -0.6508097569    3.0216005853
C       -5.7700641126   -1.3410629969    3.7408592179
C        1.0184155758    2.6416291093    2.6820875679
C       -0.1936589972    3.6894137186    0.7311621998
C        0.3327189820    2.3859260785    1.3362161121
N       -3.9123155731   -1.3301796216    2.0580595551
O       -5.7641513957   -2.5341678982    4.0049147043
O       -6.7434717224   -0.5210689591    4.2005105683
H        0.0865212459   -0.0338971997    0.0857986688
H       -1.7166041003   -1.7167813327    0.3225550561
H       -1.9516061191    2.5134670496    2.9267745685
H       -4.3950389152    1.2790291535    4.0342882571
H        0.3197541191    3.0733805074    3.4048867958
H        1.8559375713    3.3344453024    2.5536109442
H        1.4076448229    1.7029050915    3.0890771072
H       -0.9420686563    4.1495733705    1.3833669987
H       -0.6524068609    3.4909871822   -0.2427173637
H        0.6276360804    4.3984030335    0.5876069201
H        1.0867072896    1.9810409576    0.6527824334
H       -4.0698424729   -2.2867563328    1.7493041678
H       -7.3531921251   -1.1000022701    4.6852070547
28   

C       -0.7784994378    0.1823210604    0.7134480310
C       -1.8012011927   -0.7682044106    0.8332056319
C       -1.8947887744    1.6027746756    2.3345640466
C       -4.0827710294    0.5567259811    3.2907124850
C       -2.9049564881    0.6427401258    2.4465589275
C       -0.8067729779    1.3799742783    1.4599442728
C       -2.8531952689   -0.5166566483    1.7051687008
C       -4.7088442116   -0.6439031980    3.0121550669
C       -5.7521873969   -1.3441299480    3.7827636174
C        1.0149034151    2.6165034838    2.6703070029
C       -0.1953976344    3.6952341406    0.7353312074
C        0.3223809965    2.3810087321    1.3240817337
N       -3.9450213419   -1.3135246304    2.0273413016
O       -5.6274556102   -2.4655034200    4.2472446862
O       -6.8406133780   -0.5867205186    4.0502679499
H        0.0466320568   -0.0177747671    0.0396514197
H       -1.7677759801   -1.6897610011    0.2659787626
H       -1.9495238365    2.5038924983    2.9326228182
H       -4.3785120115    1.2627171323    4.0570348708
H        0.3226873423    3.0466521161    3.4002153057
H        1.8578897885    3.3034868494    2.5462334098
H        1.3975557133    1.6702826548    3.0660192889
H       -0.9382931255    4.1536817979    1.3950182160
H       -0.6585855584    3.5112952491   -0.2392832974
H        0.6310207945    4.3993357396    0.5972548888
H        1.0708475116    1.9774668048    0.6338197058
H       -4.1026194885   -2.2667103418    1.7098839419
H       -7.4119171798   -1.1492058811    4.5970230415
28   

C       -0.7908541086    0.1986825583    0.6994292959
C       -1.8157961064   -0.7490458357    0.8221636821
C       -1.8781960736    1.6038991200    2.3531319773
C       -4.0580945481    0.5560275521    3.3260618367
C       -2.8907037235    0.6466186248    2.4679671680
C       -0.8037337388    1.3874778284    1.4603294357
C       -2.8543700440   -0.5038121570    1.7119098886
C       -4.6915295561   -0.6365995712    3.0422404410
C       -5.7436563493   -1.3296083416    3.8250237614
C        1.0375587015    2.6073533417    2.6586747154
C       -0.1944525985    3.7071944154    0.7494595745
C        0.3269236675    2.3861506562    1.3194868772
N       -3.9462245575   -1.2990274448    2.0381989151
O       -5.5533278557   -2.3220947437    4.5044438432
O       -6.9415058073   -0.7022747824    3.8115626033
H        0.0237943794    0.0035399018    0.0115638949
H       -1.7941980832   -1.6635829957    0.2431604160
H       -1.9209518375    2.4982035396    2.9622782165
H       -4.3407731922    1.2558947079    4.1027154086
H        0.3563112871    3.0331257761    3.4013460969
H        1.8810638355    3.2928167152    2.5297957388
H        1.4222673358    1.6564293355    3.0408762257
H       -0.9276613727    4.1615052027    1.4227139291
H       -0.6704836246    3.5335533876   -0.2208517135
H        0.6321462155    4.4102855871    0.6073738206
H        1.0652134167    1.9867475891    0.6159822689
H       -4.1178161440   -2.2412787707    1.6977880469
H       -7.5114863049   -1.2319659001    4.3913052590
28   

C       -0.7409152687    0.1692356085    0.8096624648
C       -1.7429449987   -0.7940612801    0.9852906346
C       -1.7922545578    1.5820405577    2.4807076927
C       -3.9463953113    0.5322985146    3.5148979507
C       -2.7843277807    0.6106046947    2.6464397196
C       -0.7479936122    1.3700434861    1.5513262899
C       -2.7529426832   -0.5516270674    1.9078591546
C       -4.5678453863   -0.6674623433    3.2654296198
C       -5.7607136132   -1.2733499419    3.9280683613
C        1.1326186607    2.6252953611    2.6392257343
C       -0.2263199349    3.7030395940    0.8045556053
C        0.3512398457    2.3915454481    1.3430214073
N       -3.8345567961   -1.3468125186    2.2642337598
O       -5.7207123935   -2.0011817551    4.8993623941
O       -6.9343355779   -0.9422552122    3.3438255657
H        0.0486755151   -0.0208055191    0.0917919403
H       -1.7300749051   -1.7143325329    0.4151892908
H       -1.8323441220    2.4887944305    3.0713638399
H       -4.2577464438    1.2717180648    4.2423086260
H        0.4853202018    3.0345605477    3.4205891874
H        1.9528342619    3.3285135611    2.4642132457
H        1.5580448394    1.6817038797    2.9955535723
H       -0.9255039062    4.1466023799    1.5197864233
H       -0.7562329747    3.5203447134   -0.1357282050
H        0.5781383146    4.4200111689    0.6131513279
H        1.0545507679    2.0063919863    0.5970048414
H       -4.0457826854   -2.2676691352    1.8904834802
H       -7.6149758116   -1.3888964104    3.8716874958
28   

C       -0.7091445701    0.0989671853    0.9149778446
C       -1.6958782642   -0.8700038934    1.1400917194
C       -1.7279246081    1.5385113214    2.5831318248
C       -3.8724605688    0.5156319156    3.6605215502
C       -2.7064825186    0.5626544294    2.7957486925
C       -0.7081068735    1.3161683905    1.6295469738
C       -2.6829354544   -0.6164552313    2.0843092299
C       -4.4942707223   -0.6959417128    3.4531348401
C       -5.8127149268   -1.1594621454    3.9537379226
C        1.2090993863    2.5936731189    2.6136304269
C       -0.2484027189    3.6544933807    0.8461495811
C        0.3667013978    2.3490487273    1.3590357817
N       -3.7652981783   -1.3995203595    2.4650278479
O       -6.0629183745   -1.5071615922    5.0908484677
O       -6.7349402568   -1.2824775281    2.9707029572
H        0.0591599052   -0.0972769989    0.1760003240
H       -1.6940356576   -1.7993898686    0.5848341147
H       -1.7656607627    2.4611986480    3.1487701983
H       -4.2172297971    1.3032092319    4.3192787549
H        0.5959956748    2.9960775834    3.4256172333
H        2.0114726010    3.3058384072    2.3971886387
H        1.6620971548    1.6552382025    2.9489158441
H       -0.9117670161    4.0976537473    1.5948982286
H       -0.8256537771    3.4644380358   -0.0643419053
H        0.5397136916    4.3762347226    0.6097650116
H        1.0343236664    1.9680937632    0.5788646596
H       -4.0319198818   -2.2903799191    2.0555739057
H       -7.5319542674   -1.6131061570    3.4147412532
28   

C       -0.7026087259    0.1240965326    0.9331293506
C       -1.6959415799   -0.8326666180    1.1813579407
C       -1.6877711699    1.5932646644    2.5953819662
C       -3.8328451403    0.6090382497    3.7041335985
C       -2.6733343110    0.6298776120    2.8303072023
C       -0.6811917666    1.3495794379    1.6332231156
C       -2.6694478535   -0.5585578613    2.1339359417
C       -4.4701540256   -0.6024412540    3.5213735214
C       -5.7970469325   -1.0163893167    4.0153400257
C        1.2703364524    2.6043377832    2.5743329292
C       -0.2087936352    3.6824366233    0.8357597094
C        0.3995757696    2.3693138150    1.3375252914
N       -3.7574170288   -1.3242951972    2.5344285911
O       -6.1430820753   -1.0740225870    5.1799780831
O       -6.6002800220   -1.4865176588    3.0304704022
H        0.0548204282   -0.0881373601    0.1873840867
H       -1.7100292147   -1.7683115001    0.6368876155
H       -1.7105682218    2.5230721392    3.1500827250
H       -4.1683926094    1.4122809541    4.3488604742
H        0.6783459844    3.0136872039    3.3984692830
H        2.0763458356    3.3071045082    2.3413365994
H        1.7190844243    1.6607125246    2.9006493700
H       -0.8491789296    4.1364098475    1.5978914808
H       -0.8084071737    3.4990799291   -0.0615405515
H        0.5838615620    4.3928426394    0.5809016805
H        1.0457778156    1.9791253653    0.5440070226
H       -4.0564463426   -2.2052910567    2.1250322596
H       -7.4164869317   -1.7541914625    3.4825296148
28   

C       -0.7185396009    0.1453879472    0.9037253641
C       -1.7220246049   -0.8037979722    1.1403044397
C       -1.6883400640    1.6049370739    2.5833895039
C       -3.8410039543    0.6292100642    3.6840221314
C       -2.6838802157    0.6492296452    2.8068737753
C       -0.6843126481    1.3621698731    1.6184167314
C       -2.6927679648   -0.5310201143    2.0960621253
C       -4.4920259588   -0.5742330348    3.4858596909
C       -5.8049862226   -0.9857437453    3.9977311689
C        1.2761930615    2.5902934068    2.5775807746
C       -0.1866721475    3.6965187710    0.8430121340
C        0.4076515287    2.3736486331    1.3357582196
N       -3.7876583226   -1.2907541206    2.4894547928
O       -6.2134288495   -0.8290928908    5.1335999578
O       -6.5195907362   -1.7063876552    3.0979954597
H        0.0369980657   -0.0660236175    0.1558382907
H       -1.7456046933   -1.7329513513    0.5851438641
H       -1.7011334205    2.5279569995    3.1496609148
H       -4.1645072709    1.4240965950    4.3453079570
H        0.6854246461    2.9990394676    3.4028875739
H        2.0898715605    3.2869522167    2.3530276492
H        1.7145376536    1.6397944578    2.8980203639
H       -0.8260062449    4.1495603769    1.6066006614
H       -0.7843840166    3.5263538326   -0.0581453367
H        0.6133932355    4.4018560918    0.5974146631
H        1.0531142626    1.9839577232    0.5414016519
H       -4.0987228513   -2.1664737596    2.0766547258
H       -7.3379601058   -1.9412104151    3.5645922531
28   

C       -0.7403431733    0.1702158873    0.8629817113
C       -1.7560256761   -0.7710049468    1.0783457101
C       -1.7069698290    1.6167232597    2.5558136685
C       -3.8732862278    0.6455670734    3.6338154792
C       -2.7145161525    0.6690202004    2.7584788015
C       -0.6981524795    1.3762696557    1.5952452040
C       -2.7310546780   -0.5010328415    2.0304778435
C       -4.5359977470   -0.5478606947    3.4122954464
C       -5.8264074028   -0.9786581975    3.9521444807
C        1.2661746369    2.5700640162    2.5905809163
C       -0.1656485092    3.7135181266    0.8542512349
C        0.4085129919    2.3782527989    1.3370403577
N       -3.8337497857   -1.2567752496    2.4094789843
O       -6.2991767223   -0.6495571103    5.0249264598
O       -6.4499837983   -1.8964075452    3.1706958605
H        0.0191199538   -0.0394114044    0.1185797917
H       -1.7847878570   -1.6925717085    0.5109144972
H       -1.7130860002    2.5310415532    3.1361596131
H       -4.1854098985    1.4266877096    4.3168182152
H        0.6715115896    2.9760155538    3.4144633285
H        2.0902138981    3.2597721787    2.3829665051
H        1.6901137712    1.6108402356    2.9043438822
H       -0.8083555213    4.1641371424    1.6164517965
H       -0.7552780650    3.5609661141   -0.0553402919
H        0.6448021800    4.4128129731    0.6260709740
H        1.0581490412    1.9907765544    0.5450083533
H       -4.1430886226   -2.1354252705    2.0008038424
H       -7.2667931593   -2.1119985217    3.6494178472
28   

C       -0.7424711454    0.2164508179    0.8118378322
C       -1.7697006174   -0.7160285018    1.0097464436
C       -1.6911117194    1.6429871161    2.5316588865
C       -3.8616785239    0.6727133667    3.6019861071
C       -2.7097387412    0.7037895162    2.7175975681
C       -0.6855630613    1.4081555623    1.5662885309
C       -2.7413313154   -0.4518969352    1.9669434961
C       -4.5400916984   -0.5068694271    3.3555514157
C       -5.7976079818   -0.9650496595    3.9413779777
C        1.2833790871    2.5726328024    2.5907566150
C       -0.1223272040    3.7447703555    0.8522114552
C        0.4346227716    2.4000099770    1.3281676143
N       -3.8492570655   -1.2042868622    2.3372983627
O       -6.3343521811   -0.5044209199    4.9328328499
O       -6.3297484464   -2.0337475085    3.2951002029
H        0.0149216010    0.0109379769    0.0641895328
H       -1.8089690076   -1.6271698975    0.4263304977
H       -1.6851012845    2.5456400988    3.1300022612
H       -4.1531785988    1.4343717740    4.3155368825
H        0.6865203359    2.9792776318    3.4126788395
H        2.1168219160    3.2546294971    2.3955364952
H        1.6939353448    1.6064321415    2.9008728051
H       -0.7685493571    4.1938250767    1.6123989085
H       -0.7044421981    3.6058812806   -0.0643866536
H        0.6966403347    4.4386369783    0.6383692281
H        1.0875570934    2.0126964125    0.5387755133
H       -4.1548091236   -2.0879523295    1.9361816377
H       -7.1404136150   -2.2396206164    3.7884545123
28   

C       -0.7819191475    0.2344676384    0.7772702841
C       -1.8239802953   -0.6845613534    0.9601145468
C       -1.7179912988    1.6568754433    2.5073607845
C       -3.9008748495    0.7017331899    3.5659915564
C       -2.7512417603    0.7309735615    2.6785079490
C       -0.7109336658    1.4170242808    1.5448249754
C       -2.7965063027   -0.4160178131    1.9151794889
C       -4.5963085683   -0.4641253137    3.3025064698
C       -5.8215452716   -0.9477713425    3.9326791651
C        1.2683499284    2.5402064691    2.5962841246
C       -0.1047016538    3.7504415040    0.8577559739
C        0.4270733119    2.3927632558    1.3253660726
N       -3.9126727338   -1.1597563146    2.2783024833
O       -6.4421167964   -0.3834280649    4.8158495214
O       -6.2440795698   -2.1388345868    3.4365057698
H       -0.0231857798    0.0249660734    0.0320933968
H       -1.8728189152   -1.5897165702    0.3681660013
H       -1.7004001416    2.5519053534    3.1168280275
H       -4.1728552709    1.4494343807    4.3017116979
H        0.6716408518    2.9489503230    3.4172685929
H        2.1141394198    3.2104902211    2.4139892170
H        1.6609886722    1.5648011179    2.9007556851
H       -0.7502606599    4.2022145254    1.6169038619
H       -0.6811954641    3.6292563706   -0.0648791230
H        0.7267778110    4.4333424209    0.6573575545
H        1.0802636516    2.0023521701    0.5377150809
H       -4.2107457604   -2.0525584450    1.8918953644
H       -7.0526760105   -2.3389843813    3.9356192924
28   

C       -0.7994862704    0.2664483508    0.7399866727
C       -1.8510723575   -0.6446459614    0.9071990954
C       -1.7286486153    1.6759070089    2.4843466436
C       -3.9174267811    0.7216335631    3.5317246204
C       -2.7712555512    0.7577628422    2.6400637788
C       -0.7199116077    1.4382651738    1.5229988040
C       -2.8246561485   -0.3787876188    1.8619303987
C       -4.6235517380   -0.4336223820    3.2503700097
C       -5.8116275527   -0.9527619262    3.9237487212
C        1.2641646703    2.5281350744    2.6014418324
C       -0.0832864389    3.7718180199    0.8664825361
C        0.4304718146    2.4036077034    1.3229360339
N       -3.9442386660   -1.1209381043    2.2175997641
O       -6.5321557814   -0.3307616817    4.6834922571
O       -6.1005622764   -2.2349958380    3.5841065541
H       -0.0392464587    0.0584267798   -0.0040695894
H       -1.9052780534   -1.5426811748    0.3049621717
H       -1.7035773347    2.5618341241    3.1067112986
H       -4.1728502381    1.4516281778    4.2907485049
H        0.6663111963    2.9349628859    3.4225367161
H        2.1187044255    3.1907434928    2.4323279951
H        1.6437584402    1.5452636997    2.8983776899
H       -0.7297903609    4.2218839821    1.6258464010
H       -0.6540744315    3.6668014738   -0.0616588689
H        0.7568704602    4.4479481525    0.6798242112
H        1.0852752410    2.0146179384    0.5359199035
H       -4.2287024862   -2.0231241979    1.8430840495
H       -6.9065111770   -2.4450025228    4.0834098874
28   

C       -0.8611261201    0.2760557244    0.7108640102
C       -1.9256372549   -0.6223054723    0.8646560752
C       -1.7672087154    1.6694184694    2.4800404967
C       -3.9605413343    0.7219725115    3.5239744369
C       -2.8222702522    0.7634211195    2.6227898583
C       -0.7635481755    1.4334934461    1.5129688467
C       -2.8938769277   -0.3582935879    1.8253491480
C       -4.6860709524   -0.4163111872    3.2232415021
C       -5.8386814728   -0.9680592267    3.9368512601
C        1.2287625835    2.4897058033    2.6133012531
C       -0.0916868836    3.7614809718    0.8779493777
C        0.4016749064    2.3840784795    1.3285994336
N       -4.0195388203   -1.0938758279    2.1753895579
O       -6.6632245739   -0.3301812168    4.5660720401
O       -5.9841459631   -2.3054907306    3.7582715840
H       -0.1045285433    0.0689448293   -0.0371515213
H       -1.9928774335   -1.5100970335    0.2487050675
H       -1.7275862572    2.5435874581    3.1180648486
H       -4.1913955916    1.4317547681    4.3094544706
H        0.6317479484    2.9003491887    3.4330713985
H        2.0934182348    3.1414073301    2.4534084900
H        1.5929720145    1.5000618795    2.9069804263
H       -0.7389517236    4.2135320921    1.6355130941
H       -0.6563372937    3.6698216712   -0.0553518532
H        0.7579932421    4.4286979848    0.7027161570
H        1.0568983651    1.9916713705    0.5436290743
H       -4.2971023215   -2.0004185742    1.8067833791
H       -6.7867165297   -2.5335808128    4.2549477034
28   

C       -0.8958472465    0.3007643096    0.6803679130
C       -1.9754846453   -0.5815800544    0.8209260520
C       -1.7866152202    1.6909621973    2.4596799177
C       -3.9938153491    0.7631082391    3.4915516086
C       -2.8566078264    0.8006027505    2.5892877347
C       -0.7827551510    1.4483341644    1.4944975745
C       -2.9432843398   -0.3113766396    1.7803928660
C       -4.7373286877   -0.3591525146    3.1767644894
C       -5.8680229722   -0.9306431795    3.9184847065
C        1.2198022612    2.4620419307    2.6171820794
C       -0.0673851803    3.7691353297    0.8830849689
C        0.3998136280    2.3802879523    1.3260794708
N       -4.0786630850   -1.0355690306    2.1227347553
O       -6.8039965676   -0.3109462785    4.3891141453
O       -5.8585705817   -2.2868306846    3.9318199900
H       -0.1391243945    0.0883057997   -0.0660227495
H       -2.0537546337   -1.4627368606    0.1968092373
H       -1.7346275744    2.5571285795    3.1076347997
H       -4.2058418783    1.4601534656    4.2934061050
H        0.6244138668    2.8766204832    3.4361436998
H        2.0964702715    3.1001330840    2.4681302325
H        1.5652280234    1.4641752003    2.9057004192
H       -0.7126227509    4.2256573162    1.6397019803
H       -0.6267191537    3.6941719891   -0.0548928442
H        0.7944437359    4.4235416412    0.7192758465
H        1.0538882214    1.9830027454    0.5426035794
H       -4.3522600021   -1.9441792565    1.7571911339
H       -6.6627414705   -2.5341125335    4.4163234542
28   

C       -0.9225932369    0.3168767745    0.6560034808
C       -2.0107889745   -0.5566327412    0.7845860791
C       -1.8016132754    1.6928552064    2.4521362368
C       -4.0162755048    0.7696781885    3.4731167595
C       -2.8801353388    0.8110495965    2.5698177809
C       -0.7992617481    1.4528999341    1.4846402543
C       -2.9766721322   -0.2892324975    1.7467820810
C       -4.7699200906   -0.3396920674    3.1436219910
C       -5.8940696780   -0.9315941741    3.8932503350
C        1.2088809854    2.4380241918    2.6240775027
C       -0.0601150695    3.7716129043    0.8966660107
C        0.3928459640    2.3749210820    1.3293645421
N       -4.1176860542   -1.0084221335    2.0803641939
O       -6.9383429236   -0.3764327842    4.1773857444
O       -5.7256676456   -2.2544803376    4.1336362418
H       -0.1671038040    0.1063596140   -0.0921919733
H       -2.0965675752   -1.4293463072    0.1496917198
H       -1.7415012727    2.5498854547    3.1114085843
H       -4.2164471650    1.4540892315    4.2885776932
H        0.6146702185    2.8515142450    3.4444241621
H        2.0921280061    3.0689204588    2.4834494223
H        1.5437830341    1.4345405466    2.9054398122
H       -0.7046047879    4.2270072044    1.6546040048
H       -0.6161131104    3.7097438494   -0.0442508342
H        0.8081287054    4.4197688140    0.7421795666
H        1.0462956461    1.9783677679    0.5449893595
H       -4.3916586823   -1.9114007821    1.7025465446
H       -6.5352032185   -2.5280214306    4.5941011862
28   

C       -0.9246723298    0.2880041798    0.6435242926
C       -1.9992303431   -0.6038823220    0.7579229096
C       -1.8371805152    1.6343521606    2.4456386520
C       -4.0482813151    0.6699306682    3.4391282235
C       -2.9026450475    0.7347729848    2.5486991810
C       -0.8247642183    1.4184657312    1.4827284702
C       -2.9750546231   -0.3601523597    1.7162953023
C       -4.7772240244   -0.4476294908    3.0966810807
C       -5.9288305161   -1.0575531594    3.8076997447
C        1.1706254023    2.4090835961    2.6359559263
C       -0.1198621929    3.7598958698    0.9378421219
C        0.3529020978    2.3610665563    1.3418867794
N       -4.1080095989   -1.0988020654    2.0332411375
O       -7.0651516508   -0.6275459136    3.8273465415
O       -5.6286840873   -2.2533740006    4.3661930663
H       -0.1615144656    0.0962462788   -0.1019355213
H       -2.0672052838   -1.4720190590    0.1146572148
H       -1.7950297262    2.4869542517    3.1119836207
H       -4.2708919962    1.3503247697    4.2519094067
H        0.5715617652    2.7958660745    3.4657689201
H        2.0440947335    3.0559075205    2.5071698979
H        1.5209798621    1.4049398340    2.8953427639
H       -0.7673374264    4.1924917411    1.7064674754
H       -0.6782293800    3.7090246199   -0.0023289998
H        0.7394051517    4.4221239692    0.7931260288
H        1.0097685061    1.9895115176    0.5481698394
H       -4.3739778378   -1.9902508688    1.6246455518
H       -6.4573152240   -2.5562406372    4.7703698646
28   

C       -0.8217960612    0.2400542156    0.7080053355
C       -1.8624534972   -0.6893307833    0.8349900345
C       -1.7635744887    1.5568306930    2.5171151437
C       -3.9601724292    0.5444208695    3.4978403269
C       -2.7970236286    0.6217171663    2.6307391220
C       -0.7540430163    1.3752447844    1.5439518865
C       -2.8371039170   -0.4778501529    1.8021171124
C       -4.6512399243   -0.5942563146    3.1606607866
C       -5.9479945077   -1.1089150896    3.6923408626
C        1.2361654104    2.4194875353    2.6491036464
C       -0.1534840023    3.7538733263    1.0173711890
C        0.3808897023    2.3654029941    1.3805936235
N       -3.9578249371   -1.2386893474    2.1092317484
O       -7.0409112536   -0.8423953158    3.2349022983
O       -5.8117749642   -1.9273975564    4.7599936939
H       -0.0626371886    0.0766678188   -0.0482287949
H       -1.9100859873   -1.5565469733    0.1886560920
H       -1.7494538931    2.4160544273    3.1760686323
H       -4.2459140490    1.2614176741    4.2574944713
H        0.6479630876    2.7657306880    3.5042612943
H        2.0800051308    3.1018828876    2.5073006634
H        1.6318846511    1.4244341033    2.8762459973
H       -0.7882443820    4.1521740016    1.8145276133
H       -0.7414925244    3.6996482439    0.0956186956
H        0.6772425095    4.4478580789    0.8555766754
H        1.0243831304    2.0326866574    0.5591642404
H       -4.2438554888   -2.0939248908    1.6412133754
H       -6.7168096645   -2.1770595077    5.0048993989
28   

C       -0.7439206874    0.1572875457    0.7589806713
C       -1.7460336037   -0.8104602147    0.9106144807
C       -1.6912246568    1.4398044164    2.5891294525
C       -3.8513081735    0.3746548659    3.5871694686
C       -2.6873640194    0.4681730230    2.7247174077
C       -0.6992227466    1.2956432707    1.5923577447
C       -2.7061626635   -0.6339632114    1.8992623717
C       -4.5177212593   -0.7890634660    3.2618941724
C       -5.8931500848   -1.1982705473    3.6370293352
C        1.2926309836    2.4020261661    2.6248766195
C       -0.2159159421    3.7073317703    1.0779221119
C        0.3858896318    2.3342676755    1.3939621590
N       -3.8084683222   -1.4199695932    2.2124622813
O       -6.8444208643   -1.1888765178    2.8768579809
O       -6.0403168984   -1.4929582163    4.9485448732
H        0.0002043117    0.0239533009   -0.0178021733
H       -1.7804572509   -1.6759023666    0.2610651327
H       -1.6985581005    2.3030946226    3.2428449035
H       -4.1830521140    1.1176677417    4.3018651026
H        0.7278035326    2.7086574383    3.5104340293
H        2.1011791191    3.1209406455    2.4599430586
H        1.7374191574    1.4202234122    2.8158936766
H       -0.8267148006    4.0713612544    1.9093957342
H       -0.8436977882    3.6449483207    0.1833085102
H        0.5803558375    4.4342304257    0.8894006399
H        1.0041592716    2.0401072769    0.5391372604
H       -4.1146456050   -2.2441550482    1.7024283750
H       -6.9828550428   -1.6956470720    5.0585042536
28   

C       -0.7579421901    0.1641611663    0.7396949071
C       -1.7583566351   -0.8059157236    0.8876177991
C       -1.6846072827    1.4183046828    2.5998625514
C       -3.8344114143    0.3388104427    3.6042226102
C       -2.6790877715    0.4445102633    2.7316999328
C       -0.7040771765    1.2897773657    1.5897043168
C       -2.7072941533   -0.6447543132    1.8895319944
C       -4.5059452877   -0.8219427994    3.2684075845
C       -5.8724523689   -1.2385256555    3.6315096434
C        1.2965763965    2.3858083121    2.6170230733
C       -0.2290759417    3.7081767159    1.1016529392
C        0.3779033275    2.3322017572    1.3942897233
N       -3.8073502937   -1.4343803559    2.2013735669
O       -6.7562650720   -1.4747885331    2.8241463212
O       -6.1182744533   -1.2205597014    4.9616026518
H       -0.0227038254    0.0429118948   -0.0474552574
H       -1.8004678671   -1.6612182711    0.2251871756
H       -1.6849396096    2.2717170624    3.2664739640
H       -4.1605203828    1.0714987005    4.3322041138
H        0.7401535734    2.6806555489    3.5118490874
H        2.1025571600    3.1078367516    2.4531282388
H        1.7444332496    1.4023064287    2.7913740092
H       -0.8324669293    4.0604139026    1.9435587733
H       -0.8653631142    3.6561702398    0.2123954683
H        0.5641609209    4.4388120951    0.9148010206
H        0.9882080461    2.0498656763    0.5298104714
H       -4.1307746615   -2.2420596261    1.6748469764
H       -7.0537187382   -1.4634515801    5.0491610191
28   

C       -0.7797353586    0.1994893510    0.7074152085
C       -1.7853579052   -0.7663971964    0.8463650134
C       -1.6867329772    1.4299930563    2.5930852203
C       -3.8314042601    0.3422325033    3.6013901004
C       -2.6862606044    0.4602411465    2.7164796973
C       -0.7133569053    1.3111140509    1.5747660528
C       -2.7266015979   -0.6152373736    1.8569288075
C       -4.5104849702   -0.8114995654    3.2529426883
C       -5.8466392577   -1.2737979431    3.6447136256
C        1.2973674734    2.3808106744    2.6116576150
C       -0.2233623279    3.7313697516    1.1161784301
C        0.3755535921    2.3482466696    1.3904109062
N       -3.8258793954   -1.4060724539    2.1674968544
O       -6.6656075215   -1.7429806067    2.8685574269
O       -6.1574040136   -1.0353122066    4.9399902672
H       -0.0496263607    0.0854077155   -0.0855587808
H       -1.8363516509   -1.6118525419    0.1719962807
H       -1.6763816533    2.2719576257    3.2740300806
H       -4.1416067499    1.0567204691    4.3541450730
H        0.7452198560    2.6687858543    3.5113454612
H        2.1079431562    3.0991966861    2.4545328540
H        1.7388976297    1.3922636731    2.7731815461
H       -0.8231939510    4.0764319344    1.9635921905
H       -0.8615300124    3.6942847175    0.2275224647
H        0.5740166915    4.4594067616    0.9370348686
H        0.9822704275    2.0725573110    0.5212722717
H       -4.1575851182   -2.2098153468    1.6391481152
H       -7.0704160449   -1.3480570452    5.0422306949
28   

C       -0.8191412595    0.2272797857    0.6715786015
C       -1.8334232946   -0.7304162046    0.8032395782
C       -1.7038804893    1.4415346067    2.5784259888
C       -3.8450890314    0.3524985424    3.5947048168
C       -2.7118432843    0.4796941675    2.6951716935
C       -0.7369675527    1.3263342352    1.5534606287
C       -2.7672352087   -0.5837428039    1.8212130135
C       -4.5345213537   -0.7925578969    3.2365307664
C       -5.8312240936   -1.3082785185    3.6743937770
C        1.2859690836    2.3634040639    2.6014533869
C       -0.2198966700    3.7442831178    1.1185284503
C        0.3639797318    2.3524589133    1.3797405603
N       -3.8663924309   -1.3734413194    2.1341204810
O       -6.5694137211   -1.9889497970    2.9756171731
O       -6.2046952545   -0.9015006130    4.9101984236
H       -0.0935718369    0.1156995661   -0.1259036271
H       -1.8951545173   -1.5677117780    0.1196292069
H       -1.6799575908    2.2729170775    3.2719240071
H       -4.1330555811    1.0473620755    4.3743038042
H        0.7373075641    2.6497579667    3.5037756056
H        2.1048204089    3.0737587269    2.4508281598
H        1.7161429228    1.3684657001    2.7542131083
H       -0.8168990118    4.0870777999    1.9688684350
H       -0.8576476296    3.7224093226    0.2290758227
H        0.5853066052    4.4655146381    0.9470876884
H        0.9680730767    2.0781553569    0.5083383876
H       -4.1998175544   -2.1830247903    1.6150629032
H       -7.0835704034   -1.2893507779    5.0484065040
28   

C       -0.8908735191    0.2300977858    0.6208647061
C       -1.9188699542   -0.7134183100    0.7474851998
C       -1.7422718383    1.4321052208    2.5507070565
C       -3.8808115058    0.3506523709    3.5824137867
C       -2.7634872191    0.4838179065    2.6633758892
C       -0.7848730741    1.3155518891    1.5169113317
C       -2.8420915444   -0.5664242162    1.7749219267
C       -4.5873763992   -0.7815025797    3.2157750104
C       -5.8371037687   -1.3473621823    3.7156515751
C        1.2532112781    2.3147247108    2.5758930561
C       -0.2276556375    3.7250711733    1.0953547454
C        0.3339328694    2.3235391168    1.3518064283
N       -3.9432575533   -1.3506574985    2.0936547041
O       -6.4818163694   -2.2064048139    3.1287967693
O       -6.2681295335   -0.8125063355    4.8822381606
H       -0.1720626216    0.1169861133   -0.1824998229
H       -1.9972020921   -1.5420427491    0.0550530655
H       -1.6982888294    2.2519858904    3.2568094771
H       -4.1368772223    1.0229423820    4.3924189383
H        0.7078637028    2.6074811235    3.4781431384
H        2.0842826768    3.0116608132    2.4295165384
H        1.6663333997    1.3122238500    2.7263195463
H       -0.8229340501    4.0720463152    1.9452360392
H       -0.8622523445    3.7169759413    0.2034205316
H        0.5889701505    4.4348953313    0.9305523968
H        0.9361847445    2.0432374120    0.4810380131
H       -4.2759735140   -2.1706021285    1.5901491592
H       -7.1027073167   -1.2687511501    5.0754415506
28   

C       -0.9242981833    0.2957632249    0.5687669994
C       -1.9643005535   -0.6367166527    0.6774074955
C       -1.7570471264    1.4679612679    2.5249651242
C       -3.8931746733    0.3776671001    3.5531632264
C       -2.7894559263    0.5299501339    2.6205540278
C       -0.8026223965    1.3604746508    1.4874098660
C       -2.8834676288   -0.4997279430    1.7098119483
C       -4.6110752842   -0.7411827637    3.1681267914
C       -5.8023309394   -1.3745190379    3.7238753191
C        1.2434415471    2.3144844037    2.5756828064
C       -0.2071451697    3.7656575362    1.1045748671
C        0.3328212014    2.3532170169    1.3453709111
N       -3.9849730392   -1.2852651785    2.0236562272
O       -6.3227331952   -2.3789757096    3.2558742072
O       -6.3065837481   -0.7606171396    4.8201214120
H       -0.2068650168    0.1888044674   -0.2366682262
H       -2.0524083290   -1.4517028221   -0.0298830705
H       -1.6990275179    2.2699955473    3.2502942964
H       -4.1200566792    1.0162631000    4.3983812970
H        0.6968252345    2.6040319253    3.4781788011
H        2.0859930984    3.0005025573    2.4440081336
H        1.6404523995    1.3040189611    2.7159391530
H       -0.8047041392    4.1081941904    1.9546794424
H       -0.8345241684    3.7787629142    0.2076182436
H        0.6204690657    4.4663502389    0.9564578135
H        0.9375651805    2.0760031687    0.4753417617
H       -4.3057216050   -2.1159644146    1.5298939242
H       -7.0822978207   -1.2878551078    5.0697343828
