19   
Generated by ForceBalance from scan.xyz: Frame 1 of 7
C        1.7539188488   -1.2811426130   -0.1151891803
C        0.8067588697   -0.4403286103    0.4800895625
C        2.7324553038   -1.8810289528    0.6727334648
C        0.8478181630   -0.2097773042    1.8563207209
C        4.1309769215   -2.3845983475    4.1731057185
C        5.6921234896   -3.6400317479    2.9559793564
C        2.8021053107   -1.6618834589    2.0641309683
C        1.8335916850   -0.8114163735    2.6452269896
C        3.8979122203   -2.2500816547    2.8242508390
N        4.7180874310   -3.2608680082    2.1684268865
O        1.8786141012   -0.6036954406    4.0021940784
S        5.8986832442   -2.5216047705    4.3187349537
H        1.7259962264   -1.4678522186   -1.1847555836
H        0.0351941600    0.0341616774   -0.1202272205
H        3.4724959660   -2.5396900877    0.2316793105
H        0.1084037077    0.4390175055    2.3239116518
H        3.6482772411   -1.7527397472    4.9129542630
H        6.4479679700   -4.3602612986    2.6577115821
H        1.1670673820    0.0091335104    4.2482967800
19   
Generated by ForceBalance from scan.xyz: Frame 2 of 7
C        1.7514308649   -1.2906071288   -0.1106859105
C        0.8027816124   -0.4541931271    0.4866261314
C        2.7401178979   -1.8804870174    0.6734317403
C        0.8555716114   -0.2194925441    1.8613532259
C        4.1471527088   -2.2960150597    4.1811898867
C        5.6931312385   -3.6319766791    2.9400204259
C        2.8210077354   -1.6592494751    2.0628120740
C        1.8517155739   -0.8124889094    2.6445155428
C        3.9209979744   -2.2690664616    2.8199497518
N        4.7427339662   -3.2089553688    2.1550782962
O        1.9014984664   -0.5903560367    4.0016906776
S        5.8238638130   -2.7246466569    4.4408424459
H        1.7190482118   -1.4819675229   -1.1793946502
H        0.0237646511    0.0137705085   -0.1091611663
H        3.4812975713   -2.5335569422    0.2264001931
H        0.1174460196    0.4274977191    2.3337893385
H        3.6655130016   -1.6529303556    4.9051801395
H        6.4680827234   -4.3225740323    2.6225102623
H        1.1786815260    0.0101768463    4.2446510945
19   
Generated by ForceBalance from scan.xyz: Frame 3 of 7
C        1.7488904026   -1.3045713902   -0.1074484267
C        0.7989346967   -0.4697569106    0.4891302711
C        2.7468999891   -1.8819579495    0.6748359803
C        0.8603702044   -0.2240980615    1.8613752238
C        4.1761826023   -2.2205869268    4.1786002003
C        5.7117847912   -3.6095489990    2.9294562432
C        2.8356347539   -1.6511544534    2.0615743713
C        1.8654086162   -0.8057120624    2.6420582618
C        3.9338651090   -2.2736438586    2.8212036156
N        4.7829948795   -3.1518674630    2.1445106156
O        1.9225533185   -0.5664203714    3.9974234049
S        5.7269050768   -2.9138823736    4.5338273804
H        1.7115489164   -1.5044427866   -1.1744792838
H        0.0131051002   -0.0110194496   -0.1048667150
H        3.4895218709   -2.5323972878    0.2265642697
H        0.1228265485    0.4233494371    2.3342670107
H        3.6738592501   -1.6066444975    4.9097070583
H        6.4985305943   -4.2829591965    2.6050998575
H        1.1940582825    0.0282087378    4.2376290744
19   
Generated by ForceBalance from scan.xyz: Frame 4 of 7
C        1.7406838516   -1.3202985941   -0.1048668262
C        0.7914855726   -0.4840620413    0.4906789764
C        2.7471485118   -1.8860363008    0.6753800483
C        0.8634203965   -0.2257997677    1.8600608539
C        4.2075380911   -2.1716138921    4.1697607060
C        5.7376397815   -3.5830548687    2.9203689935
C        2.8450925333   -1.6437281898    2.0592669215
C        1.8762239939   -0.7965264016    2.6388325205
C        3.9370220255   -2.2767792111    2.8217910232
N        4.8303518553   -3.0920008435    2.1320989490
O        1.9449009448   -0.5397223175    3.9908254196
S        5.6017281569   -3.1046217573    4.5929452515
H        1.6967482379   -1.5299845782   -1.1697727942
H       -0.0006893483   -0.0338049857   -0.1013964358
H        3.4898005302   -2.5363113984    0.2270103447
H        0.1281242029    0.4245421809    2.3325050947
H        3.6692768365   -1.6062472867    4.9130857052
H        6.5326210550   -4.2439692870    2.5912545922
H        1.2151563895    0.0536440484    4.2302761124
19   
Generated by ForceBalance from scan.xyz: Frame 5 of 7
C        1.7285000750   -1.3321333361   -0.1011911469
C        0.7803841853   -0.4948116794    0.4947995877
C        2.7433774960   -1.8866888130    0.6758935987
C        0.8609002492   -0.2233407721    1.8611812116
C        4.2457966251   -2.1263075354    4.1571618642
C        5.7552321438   -3.5506928641    2.9160187511
C        2.8493246687   -1.6325755623    2.0573376585
C        1.8815738040   -0.7837767444    2.6370560469
C        3.9329555649   -2.2748514722    2.8214509846
N        4.8724439274   -3.0306546874    2.1169471880
O        1.9630480487   -0.5115207977    3.9849351081
S        5.4535582106   -3.2841838961    4.6178262651
H        1.6773986745   -1.5506447648   -1.1639886673
H       -0.0179032750   -0.0529487891   -0.0953662575
H        3.4863483276   -2.5366510295    0.2275072578
H        0.1274787075    0.4296850564    2.3328115676
H        3.6721793618   -1.6089720561    4.9102213918
H        6.5595085807   -4.2003432524    2.5862450958
H        1.2325307945    0.0803718737    4.2257569196
19   
Generated by ForceBalance from scan.xyz: Frame 6 of 7
C        1.7157155873   -1.3389022084   -0.0997445410
C        0.7666889417   -0.5030124306    0.4977011128
C        2.7395748882   -1.8811488432    0.6735476724
C        0.8550993316   -0.2200784277    1.8614741746
C        4.3069315178   -2.0795805977    4.1319868558
C        5.7722264568   -3.5248144313    2.9156122426
C        2.8524350494   -1.6166365817    2.0530990143
C        1.8840089020   -0.7687097575    2.6345457688
C        3.9243794948   -2.2644552397    2.8188525351
N        4.9146505663   -2.9760481719    2.1021282582
O        1.9794047246   -0.4848150232    3.9776944269
S        5.2898040175   -3.4480407389    4.6050440634
H        1.6579642523   -1.5646079096   -1.1606532911
H       -0.0383531508   -0.0702908508   -0.0900733021
H        3.4847888642   -2.5287469931    0.2252651402
H        0.1218122273    0.4334579561    2.3324330155
H        3.7114581385   -1.5906999870    4.8910017150
H        6.5900575509   -4.1573244221    2.5848999173
H        1.2457438573    0.1010257473    4.2239994011
19   
Generated by ForceBalance from scan.xyz: Frame 7 of 7
C        1.7068087817   -1.3448647950   -0.1007526443
C        0.7537541413   -0.5120451910    0.4963521877
C        2.7374995143   -1.8741172450    0.6711199089
C        0.8425948896   -0.2167942705    1.8578901911
C        4.3820342280   -2.0445141070    4.0958102047
C        5.7826897254   -3.5173164589    2.9280312701
C        2.8491453148   -1.5981107723    2.0496035779
C        1.8774096150   -0.7520169114    2.6317034903
C        3.9003935313   -2.2466741146    2.8234211953
N        4.9576213474   -2.9363632678    2.0946641002
O        1.9845742758   -0.4601420503    3.9695597010
S        5.1001293168   -3.6032384521    4.5643021706
H        1.6459951470   -1.5761101168   -1.1602050570
H       -0.0559091799   -0.0891510101   -0.0922384351
H        3.4887791551   -2.5175477874    0.2265991001
H        0.1062101684    0.4360972052    2.3245591157
H        3.7999552499   -1.5472811888    4.8662404330
H        6.6258978148   -4.1192074270    2.6028812194
H        1.2437712389    0.1130541892    4.2246701806
