25

C     -3.00690    1.11653   -4.72588
C     -4.15770    0.74983   -5.43640
C     -3.54240   -1.58839   -5.22455
C     -2.11320    0.14649   -4.25791
C     -2.41103   -1.20218   -4.52427
C     -4.41589   -0.59497   -5.67970
C      2.85988    2.15595   -2.74149
C      2.22302    3.43072   -2.17485
C      0.66004    1.75218   -2.50542
C     -0.64652    1.74685   -3.27613
O      1.75076    1.50523   -3.36668
O      0.85404    3.05364   -1.94585
O     -0.97159    0.38803   -3.55947
F     -1.55957   -2.15048   -4.07603
Br    -5.98753   -1.10628   -6.65025
H     -2.81868    2.16827   -4.54429
H     -4.83968    1.51444   -5.79236
H     -3.72498   -2.64250   -5.40284
H      3.62218    2.33713   -3.50089
H      3.27636    1.52363   -1.94513
H      2.67286    3.75201   -1.23079
H      2.25083    4.25748   -2.89333
H      0.63522    1.00540   -1.69609
H     -0.52028    2.32449   -4.19903
H     -1.42251    2.20923   -2.65470
