38

C     -6.89299   -1.23274   -1.07568
C     -0.27412   -0.46959   -1.50575
C     -0.98594   -0.52361   -0.31259
C     -5.25041   -0.14091   -2.09475
C     -4.71926   -1.40748   -2.17908
C     -2.21713   -1.26167   -2.02829
C      1.12730   -0.06165   -1.78652
C     -0.73081   -0.12962    1.11145
C      1.33309    1.16908    0.44791
C      0.73415    0.17974    1.47735
C     -4.60720    1.11611   -2.60505
C      1.56424   -1.11118    1.54989
C      0.73775    0.87399    2.85104
C     -3.39643   -1.82947   -2.76753
N     -6.48305   -0.06071   -1.46786
N     -1.06266   -0.93260   -2.55368
N     -2.21884   -1.03668   -0.66981
N      1.82890    0.57183   -0.78317
O      1.67158   -0.30604   -2.86232
S     -5.80848   -2.54966   -1.43550
H     -7.83571   -1.40906   -0.56825
H     -1.34050    0.75698    1.33706
H     -1.09691   -0.92430    1.77492
H      0.59254    1.95367    0.23491
H      2.19237    1.66496    0.90822
H     -5.27620    1.62545   -3.30588
H     -4.41474    1.80779   -1.77784
H     -3.65984    0.91328   -3.10778
H      2.61914   -0.88461    1.73868
H      1.51005   -1.68480    0.62219
H      1.20538   -1.74657    2.36736
H      1.76141    1.02059    3.21195
H      0.20447    0.27351    3.59620
H      0.25237    1.85617    2.80437
H     -3.32419   -2.92277   -2.78679
H     -3.31319   -1.50191   -3.80756
H     -3.00826   -1.17155   -0.04890
H      2.76577    0.81708   -1.07888
