42

C     -2.44257   -0.45224   -0.03674
C     -1.85815   -1.09508    1.05974
C     -3.31674   -1.15672   -0.87840
C     -2.12912   -2.43961    1.35094
C     -1.68433   -7.67266    0.11306
C     -3.89230   -8.29195   -0.62702
C     -3.59473   -2.48984   -0.60130
C     -3.07180   -7.60602    0.27387
C     -3.01029   -3.12231    0.50710
C     -1.11404   -8.41382   -0.92256
C     -1.93373   -9.14066   -1.81817
C     -3.32338   -9.04895   -1.65152
C     -3.04096   -5.39736    1.49748
C     -4.44261   -3.47842   -1.36908
C      0.99889   -9.83937   -2.85320
C     -4.54715   -4.67966   -0.40396
C      0.83610   -8.41825   -2.31445
C     -0.25715  -10.66321   -2.57067
C     -3.67454   -6.78451    1.40033
N     -3.46332   -4.46403    0.58533
O     -2.16787   -5.16414    2.33546
O      0.25994   -8.41755   -0.99386
O     -1.45180   -9.90500   -2.84812
Cl    -4.37089   -9.92223   -2.75163
H     -2.21833    0.59176   -0.23806
H     -1.17919   -0.54480    1.70608
H     -3.76916   -0.66708   -1.73782
H     -1.67732   -2.94040    2.19590
H     -1.01934   -7.12947    0.77820
H     -4.97359   -8.25566   -0.53416
H     -5.42815   -3.08635   -1.63402
H     -3.94195   -3.76910   -2.29998
H      1.19270   -9.78535   -3.93039
H      1.85672  -10.33542   -2.38547
H     -5.51497   -4.68500    0.11163
H     -4.41733   -5.63362   -0.91408
H      1.80256   -7.91972   -2.21096
H      0.20928   -7.81790   -2.98135
H     -0.31352  -11.54144   -3.21766
H     -0.27901  -10.99950   -1.52956
H     -4.75938   -6.72177    1.27566
H     -3.47686   -7.26265    2.36306
