28

C      1.87992    0.45474   -2.30094
C      0.13072    1.74229    3.58851
C      0.68831    1.63441    2.29798
C      2.59589    0.16395   -3.45783
C     -1.38587    0.66637    1.41139
C      1.39333    1.92993   -4.62174
C      0.91092    1.47457   -2.26337
C     -1.17317    1.31449    3.74621
C     -1.91122    0.79035    2.68261
C     -0.06123    1.10884    1.25171
C      0.69234    2.19614   -3.44875
C      2.34299    0.90967   -4.61347
C      0.14567    1.77383   -1.02188
C     -3.26117    0.94554    4.45793
O     -0.72794    2.60175   -0.90207
O     -1.93506    1.27963    4.89672
O     -3.15897    0.41171    3.12611
O      0.56770    0.96095    0.00602
F     -0.21264    3.18589   -3.49548
Cl     3.23117    0.56091   -6.07821
H      2.06526   -0.11533   -1.39851
H      0.70061    2.14321    4.42014
H      1.70551    1.96093    2.10792
H      3.33822   -0.62678   -3.46877
H     -1.95688    0.26412    0.58241
H      1.18966    2.51518   -5.51170
H     -3.68131    0.18586    5.11971
H     -3.87794    1.85436    4.43631
