39

C      3.83979    0.89389   -1.95374
C      3.27549    0.16472   -0.93861
C      5.46077    1.18090   -0.44428
C      0.73103    1.08933    0.38388
C      0.05123   -1.17378    0.50765
C     -0.27582    1.01176    1.53777
C     -1.02875   -0.30260    1.18770
C      6.74679    1.66009    0.16133
C      0.42532    1.00529    2.90204
C     -1.72936   -0.99907    2.35193
C      3.97007    0.21825   -4.38576
C      3.28174    1.10668   -3.33491
C      1.98758   -0.60401   -0.89490
N      5.07596    1.45637   -1.65889
N      1.21254   -0.29407    0.29696
O     -1.99363   -0.02535    0.14364
S      4.32318    0.19654    0.46199
H      0.22979    1.41264   -0.54470
H      1.56183    1.77264    0.58178
H      0.33694   -2.03356    1.12459
H     -0.36844   -1.55420   -0.43471
H     -0.97989    1.85193    1.50082
H      6.56774    2.25140    1.06554
H      7.39485    0.82106    0.43648
H      7.26800    2.28171   -0.56936
H      1.14285    0.18270    2.97299
H     -0.28880    0.91646    3.72646
H      0.97852    1.93993    3.04251
H     -2.47325   -0.33889    2.81514
H     -1.02197   -1.30402    3.12754
H     -2.24808   -1.89094    1.98689
H      5.04862    0.40165   -4.39431
H      3.57762    0.42253   -5.38789
H      3.80935   -0.84253   -4.16499
H      2.20389    0.91945   -3.33835
H      3.42630    2.15984   -3.59974
H      1.41997   -0.40451   -1.82197
H      2.20119   -1.68033   -0.88434
H     -2.66010    0.57705    0.51231
