29   
Generated by ForceBalance from scan.xyz: Frame 1 of 24
C       -2.3418115083    1.0533925423   -0.4076868563
C       -3.6994195840    0.8248033345   -0.3862094510
C       -1.4745495462   -0.0546145590   -0.5316054303
C       -4.1135342580   -0.5188578315   -0.4918602952
C        0.7366544268    1.2695861864   -0.0317654740
C        0.8006475951   -0.0422229482    0.7235045900
C        0.0265088943    0.0500353523   -0.5795537032
C        0.9795027270    0.2932339782    3.2303333205
C       -5.8546018529   -2.1378355081   -0.5712826296
C        0.1103292716   -0.1942028948    2.0622049545
N       -1.9474737716   -1.2988341431   -0.6426500699
N       -3.2660479367   -1.5346618732   -0.6237545403
N        0.6780437983   -0.5905180072   -1.7095001759
O       -5.4432270457   -0.7624791534   -0.4617153252
H       -1.9442251276    2.0610565663   -0.3415048162
H       -4.4354834916    1.6181288026   -0.2989892384
H        0.1496330572    2.0677607785    0.4143695204
H        1.6158086737    1.5972071919   -0.5767676709
H        1.7353908909   -0.5889567181    0.6215440780
H        0.5467635044   -0.0062700754    4.1913848520
H        1.0562347414    1.3860648016    3.2357017260
H        1.9923151299   -0.1205875900    3.1769051764
H       -6.9436578610   -2.1112315314   -0.5231081865
H       -5.4462027085   -2.7310808301    0.2508735816
H       -5.5203371253   -2.5680447990   -1.5188137734
H       -0.8323443660    0.3663315361    2.0608359313
H       -0.1771356612   -1.2416344910    2.2169375952
H        0.3555160684   -0.1562050651   -2.5748729550
H        0.3662200544   -1.5616657331   -1.7435037617
29   
Generated by ForceBalance from scan.xyz: Frame 2 of 24
C       -2.3445831734    1.0455141869   -0.4108489746
C       -3.7034736778    0.8248833725   -0.3873165951
C       -1.4840546658   -0.0683332346   -0.5290985389
C       -4.1250364546   -0.5170582858   -0.4852279717
C        0.7339047702    1.2473544922   -0.0367860937
C        0.7930220116   -0.0620164275    0.7235029337
C        0.0174077378    0.0288264567   -0.5787304890
C        0.9683950477    0.2989774378    3.2350719418
C       -5.8752090265   -2.1265496868   -0.5542979265
C        0.1050360781   -0.2055829202    2.0637521358
N       -1.9638818729   -1.3105402739   -0.6330742363
N       -3.2837518495   -1.5386446286   -0.6120431072
N        0.6648554639   -0.6191064348   -1.7068604611
O       -5.4560491684   -0.7529261856   -0.4528046407
H       -1.9409591318    2.0511576438   -0.3504396893
H       -4.4349815196    1.6228442248   -0.3040724756
H        0.1512706960    2.0499124638    0.4070556963
H        1.6137782903    1.5686107209   -0.5844127598
H        1.7251540253   -0.6132245107    0.6220785574
H        0.6770047540   -0.1880735223    4.1722771384
H        0.8407826277    1.3753840412    3.3907898836
H        2.0318162350    0.0952000589    3.0729446399
H       -6.9640603120   -2.0935719106   -0.5054610384
H       -5.4694984506   -2.7174217663    0.2708950992
H       -5.5440905843   -2.5639668499   -1.4996314353
H       -0.8403589633    0.3500939039    2.0546868892
H       -0.1887238543   -1.2493203583    2.2285389966
H        0.3434599982   -0.1867056103   -2.5736006389
H        0.3486138594   -1.5889614871   -1.7366938834
29   
Generated by ForceBalance from scan.xyz: Frame 3 of 24
C       -2.3466943251    1.0392652521   -0.4170247242
C       -3.7066948364    0.8254997155   -0.3936323332
C       -1.4915263434   -0.0796466102   -0.5261641943
C       -4.1351787403   -0.5148755471   -0.4823749986
C        0.7336064149    1.2272620860   -0.0408967195
C        0.7854706770   -0.0776091464    0.7277252370
C        0.0104931672    0.0088520676   -0.5750477187
C        0.9641798037    0.3030134760    3.2426047658
C       -5.8934757932   -2.1159389682   -0.5419704784
C        0.0968815347   -0.2087572784    2.0693827801
N       -1.9776862910   -1.3200526221   -0.6219118508
N       -3.2987208804   -1.5414189819   -0.6007971328
N        0.6546695634   -0.6496381167   -1.6990207991
O       -5.4674241984   -0.7437714235   -0.4499065235
H       -1.9381251614    2.0432784046   -0.3633127771
H       -4.4342467256    1.6277292905   -0.3170701582
H        0.1553402206    2.0357905871    0.3976885860
H        1.6149773472    1.5400220657   -0.5910544339
H        1.7147322283   -0.6342524013    0.6297985672
H        0.8769200721   -0.3529953232    4.1151421517
H        0.6526236857    1.2995826693    3.5712498559
H        2.0237329188    0.3494568965    2.9723181726
H       -6.9822049182   -2.0770518725   -0.4947568831
H       -5.4918126699   -2.7028669752    0.2880033175
H       -5.5634349935   -2.5618974874   -1.4836821305
H       -0.8486473198    0.3451623130    2.0509046601
H       -0.1959730818   -1.2520009044    2.2357197591
H        0.3357871063   -0.2209008375   -2.5685072044
H        0.3331572236   -1.6179277630   -1.7229133047
29   
Generated by ForceBalance from scan.xyz: Frame 4 of 24
C       -2.3518863717    1.0304704521   -0.4251153061
C       -3.7130735836    0.8243662713   -0.4011777146
C       -1.5024561239   -0.0936843425   -0.5246850122
C       -4.1484504413   -0.5144092098   -0.4796835250
C        0.7290436074    1.2063130640   -0.0490920678
C        0.7727961946   -0.0910530945    0.7317764732
C        0.0001064598   -0.0138408202   -0.5726006349
C        0.9611410682    0.3021908069    3.2444068622
C       -5.9151298695   -2.1066123083   -0.5278813207
C        0.0810486647   -0.2063144969    2.0749444674
N       -1.9951629859   -1.3322140938   -0.6110206314
N       -3.3173610079   -1.5463075931   -0.5893038106
N        0.6421184216   -0.6859349651   -1.6898104205
O       -5.4819090906   -0.7360178745   -0.4464788271
H       -1.9380460600    2.0326885251   -0.3790209942
H       -4.4363806900    1.6310623965   -0.3315767307
H        0.1542684043    2.0221788423    0.3805048330
H        1.6123322665    1.5090563581   -0.6018294831
H        1.6992998500   -0.6535926194    0.6409696207
H        1.1292964264   -0.4769421341    3.9942248844
H        0.5027126148    1.1527309611    3.7585372858
H        1.9428950306    0.6303422172    2.8884032630
H       -7.0036714330   -2.0616006608   -0.4818052284
H       -5.5171684663   -2.6889823073    0.3070712053
H       -5.5867779700   -2.5618327532   -1.4657439562
H       -0.8617559707    0.3502350143    2.0493856628
H       -0.2018415066   -1.2527592574    2.2364480601
H        0.3260215364   -0.2637602480   -2.5635229868
H        0.3156784967   -1.6527503190   -1.7050380073
29   
Generated by ForceBalance from scan.xyz: Frame 5 of 24
C       -2.3615777245    1.0225306116   -0.4338193999
C       -3.7237365371    0.8231313521   -0.4085227178
C       -1.5175452356   -0.1065567053   -0.5230054732
C       -4.1656540279   -0.5141369271   -0.4751649620
C        0.7205199312    1.1875638942   -0.0607819740
C        0.7561160487   -0.1003647629    0.7355170879
C       -0.0145490919   -0.0349328894   -0.5706408914
C        0.9580022919    0.2989088617    3.2392254627
C       -5.9400498040   -2.0981049202   -0.5099041514
C        0.0606784035   -0.1958377289    2.0798703168
N       -2.0162946640   -1.3434077537   -0.5982308202
N       -3.3395012233   -1.5509643348   -0.5750737383
N        0.6244011576   -0.7234808776   -1.6795562403
O       -5.5001892137   -0.7289557852   -0.4406201022
H       -1.9430409406    2.0231551580   -0.3966427841
H       -4.4431488586    1.6339126708   -0.3464679567
H        0.1497184928    2.0117065300    0.3584021733
H        1.6057213112    1.4789749052   -0.6165652210
H        1.6797476912   -0.6689250996    0.6527435126
H        1.3749897938   -0.5299478574    3.8186283610
H        0.4119429052    0.9545220588    3.9250591857
H        1.7989497371    0.8858019059    2.8540971362
H       -7.0283804534   -2.0473916922   -0.4647614427
H       -5.5452911335   -2.6748718926    0.3304385292
H       -5.6135117750   -2.5633285884   -1.4434827710
H       -0.8732592468    0.3744502120    2.0528743945
H       -0.2203477153   -1.2434949979    2.2381210638
H        0.3109559254   -0.3098776585   -2.5583350149
H        0.2926110416   -1.6885869210   -1.6837624407
29   
Generated by ForceBalance from scan.xyz: Frame 6 of 24
C       -2.3670593474    1.0150803127   -0.4424730843
C       -3.7301813097    0.8227708344   -0.4143415481
C       -1.5279230369   -0.1182870618   -0.5232611028
C       -4.1779044754   -0.5130672275   -0.4698190889
C        0.7160094540    1.1694886155   -0.0741535889
C        0.7445690679   -0.1099940486    0.7352339305
C       -0.0245512833   -0.0544682204   -0.5722177118
C        0.9542329165    0.2957710062    3.2274085857
C       -5.9594049238   -2.0892482170   -0.4905430308
C        0.0464319797   -0.1891044755    2.0798547379
N       -2.0324620585   -1.3533715904   -0.5877424685
N       -3.3566137385   -1.5544909027   -0.5619227162
N        0.6117082651   -0.7572641776   -1.6736456772
O       -5.5133590481   -0.7215826139   -0.4325144388
H       -1.9439447590    2.0140472651   -0.4139114383
H       -4.4457672105    1.6373778647   -0.3582750968
H        0.1488041014    2.0007966730    0.3358792784
H        1.6032107473    1.4510339839   -0.6318243202
H        1.6654802432   -0.6840980806    0.6596751915
H        1.5762412892   -0.5112411912    3.6261644794
H        0.3728016087    0.7296805989    4.0476365447
H        1.6260926254    1.0863550147    2.8736935818
H       -7.0474590993   -2.0332809334   -0.4449797057
H       -5.5665677425   -2.6610758354    0.3540640438
H       -5.6357032412   -2.5633438710   -1.4206413485
H       -0.8779036799    0.3970744497    2.0541397096
H       -0.2416522860   -1.2346080735    2.2424896210
H        0.3006964851   -0.3510752203   -2.5567343921
H        0.2752069763   -1.7207197179   -1.6682680905
29   
Generated by ForceBalance from scan.xyz: Frame 7 of 24
C       -2.3968807785    0.9919893145   -0.4366885235
C       -3.7613141844    0.8112789197   -0.3976016158
C       -1.5688216720   -0.1497704845   -0.5132297272
C       -4.2215683620   -0.5208326407   -0.4382778642
C        0.6887777251    1.1230252927   -0.0921335416
C        0.7119840628   -0.1482614939    0.7300906899
C       -0.0653424426   -0.0991470631   -0.5730548328
C        0.9382887288    0.2829507567    3.2112602786
C       -6.0171988946   -2.0810415337   -0.4334425994
C        0.0226356732   -0.2078762569    2.0794321583
N       -2.0845653868   -1.3809299326   -0.5633363914
N       -3.4101746479   -1.5702695743   -0.5267369596
N        0.5572052408   -0.8188787111   -1.6712100395
O       -5.5585497743   -0.7170013593   -0.3902089020
H       -1.9649620978    1.9874678527   -0.4198730723
H       -4.4693397598    1.6326055137   -0.3438493402
H        0.1312125170    1.9632288050    0.3130099735
H        1.5750292251    1.3916628963   -0.6576022676
H        1.6271853071   -0.7313646677    0.6540961789
H        1.7169188459   -0.4501493840    3.4460306178
H        0.3701570360    0.4924196618    4.1239977013
H        1.4373465192    1.2154739910    2.9229568648
H       -7.1043810711   -2.0148925037   -0.3811784277
H       -5.6238570161   -2.6491075980    0.4134641620
H       -5.7039817218   -2.5660137330   -1.3615221121
H       -0.8956066244    0.3891784091    2.0573268475
H       -0.2781914075   -1.2466090564    2.2637214353
H        0.2442810945   -0.4187517410   -2.5563836271
H        0.2119444004   -1.7790920209   -1.6539084546
29   
Generated by ForceBalance from scan.xyz: Frame 8 of 24
C       -2.4021822642    0.9844198926   -0.4396722986
C       -3.7672916196    0.8102312022   -0.3982061000
C       -1.5792692611   -0.1615578757   -0.5107435320
C       -4.2336142773   -0.5200792567   -0.4310712990
C        0.6848291228    1.1026408073   -0.0984374315
C        0.7027342923   -0.1645740470    0.7310241476
C       -0.0757246149   -0.1179418214   -0.5717445800
C        0.9244667738    0.2889018865    3.2092359914
C       -6.0363717128   -2.0719835052   -0.4153939912
C        0.0150694740   -0.2124461078    2.0801756361
N       -2.1005799498   -1.3904712374   -0.5537913718
N       -3.4271272194   -1.5735735068   -0.5149014873
N        0.5429184778   -0.8466713306   -1.6663553644
O       -5.5714049548   -0.7098267299   -0.3803558114
H       -1.9656006133    1.9779491015   -0.4290332161
H       -4.4715822373    1.6350125705   -0.3484577680
H        0.1323084743    1.9480360645    0.3026529477
H        1.5721796652    1.3632844938   -0.6658924498
H        1.6149020241   -0.7525186347    0.6571144352
H        1.8215476165   -0.3337271367    3.2998725124
H        0.4060419466    0.2736288117    4.1740845478
H        1.2531429107    1.3167617920    3.0186364268
H       -7.1231925038   -2.0005908761   -0.3626093369
H       -5.6448797948   -2.6368844824    0.4344916822
H       -5.7260848894   -2.5636976523   -1.3408791449
H       -0.9009934663    0.3892642522    2.0548941996
H       -0.3023241595   -1.2427395131    2.2843050235
H        0.2336924479   -0.4470686372   -2.5532098563
H        0.1904806426   -1.8042104603   -1.6459738953
29   
Generated by ForceBalance from scan.xyz: Frame 9 of 24
C       -2.3858983608    0.9898727176   -0.4526075805
C       -3.7514817741    0.8178847738   -0.4153863287
C       -1.5645999085   -0.1576023834   -0.5155475913
C       -4.2198809753   -0.5117252082   -0.4440062741
C        0.7003629813    1.1035674226   -0.0995893704
C        0.7143583107   -0.1622509071    0.7328909782
C       -0.0607410475   -0.1166968955   -0.5721260108
C        0.9198887947    0.3094749706    3.2146392272
C       -6.0250881087   -2.0607951741   -0.4280304310
C        0.0239004591   -0.2058345122    2.0793641537
N       -2.0877399779   -1.3859523780   -0.5550275716
N       -3.4146318634   -1.5668296751   -0.5200068018
N        0.5599822347   -0.8495948483   -1.6625741566
O       -5.5581643906   -0.6992254307   -0.3973690584
H       -1.9478721784    1.9827938757   -0.4443455771
H       -4.4545915280    1.6440072989   -0.3716167179
H        0.1479753785    1.9501949215    0.2988860965
H        1.5897853311    1.3619697694   -0.6647670067
H        1.6258146911   -0.7515981683    0.6623326602
H        1.9085415583   -0.1626516475    3.1743942633
H        0.4932283501    0.0750600373    4.1957355231
H        1.0701390152    1.3920619752    3.1459256943
H       -7.1119673526   -1.9874659583   -0.3791681848
H       -5.6373300847   -2.6226903995    0.4255441246
H       -5.7125711376   -2.5570194121   -1.3503775546
H       -0.8940852670    0.3935488502    2.0463894203
H       -0.3072651698   -1.2290506831    2.2961940538
H        0.2521318533   -0.4548172702   -2.5519009899
H        0.2086036160   -1.8074304706   -1.6381412766
29   
Generated by ForceBalance from scan.xyz: Frame 10 of 24
C       -2.3430263982    1.0081797811   -0.4716861365
C       -3.7088737809    0.8356851557   -0.4485986996
C       -1.5210069263   -0.1393157885   -0.5228761159
C       -4.1760156893   -0.4943348645   -0.4788678780
C        0.7374730054    1.1240717032   -0.0808579281
C        0.7468889217   -0.1450309530    0.7467575429
C       -0.0167814251   -0.0962159252   -0.5646971647
C        0.9179666069    0.3500803940    3.2344237053
C       -5.9803795791   -2.0443176236   -0.4781307292
C        0.0469031218   -0.1947301032    2.0874076547
N       -2.0428080827   -1.3681816301   -0.5650479826
N       -3.3698767980   -1.5495249628   -0.5437212817
N        0.6152927884   -0.8237617765   -1.6522437590
O       -5.5145904377   -0.6823952843   -0.4458960657
H       -1.9051908042    2.0011961329   -0.4611304047
H       -4.4128516920    1.6615251214   -0.4143501313
H        0.1794036186    1.9679269707    0.3154111724
H        1.6314549347    1.3864141325   -0.6369633962
H        1.6602114818   -0.7320918363    0.6817588907
H        1.9715737993    0.0922027421    3.0746386996
H        0.6358723920   -0.0902010719    4.1963665825
H        0.8587146318    1.4402443348    3.3100457339
H       -7.0677516667   -1.9715266708   -0.4408256240
H       -5.6012461454   -2.6039017161    0.3808192117
H       -5.6579334007   -2.5425775526   -1.3959527544
H       -0.8837249550    0.3837720353    2.0394393366
H       -0.2757691633   -1.2192095520    2.3089642325
H        0.3144061859   -0.4266245083   -2.5428829512
H        0.2662772467   -1.7826086773   -1.6341529701
29   
Generated by ForceBalance from scan.xyz: Frame 11 of 24
C       -2.3199317433    1.0137290592   -0.4832243541
C       -3.6861999329    0.8435546632   -0.4684838272
C       -1.4991502176   -0.1350559083   -0.5248113585
C       -4.1554503576   -0.4857510367   -0.4969074479
C        0.7593747736    1.1254270683   -0.0728682497
C        0.7610382415   -0.1408479147    0.7590071544
C        0.0054198732   -0.0953296755   -0.5570443022
C        0.9197038844    0.3608275556    3.2535034043
C       -5.9624000444   -2.0328259576   -0.5021349387
C        0.0527009332   -0.1852078859    2.0959719029
N       -2.0228605387   -1.3631353135   -0.5660074070
N       -3.3503601999   -1.5422771588   -0.5526555357
N        0.6426595792   -0.8277153743   -1.6383908629
O       -5.4945395031   -0.6715649414   -0.4719749190
H       -1.8806347636    2.0060901311   -0.4734698863
H       -4.3890104901    1.6706707076   -0.4419419017
H        0.2008399809    1.9719113031    0.3169725726
H        1.6569689445    1.3836503310   -0.6250997188
H        1.6736676221   -0.7297812484    0.7016055418
H        1.9811901096    0.3500188296    2.9818778239
H        0.8257535300   -0.2536128769    4.1543581998
H        0.6635586257    1.3934979287    3.5083732512
H       -7.0498690349   -1.9580888506   -0.4721753765
H       -5.5898051482   -2.5898046155    0.3613574470
H       -5.6348415611   -2.5350782043   -1.4159610796
H       -0.8772660110    0.3920412038    2.0367818997
H       -0.2716229081   -1.2100121012    2.3113531280
H        0.3477531953   -0.4331014813   -2.5321482254
H        0.2917901293   -1.7858628724   -1.6191303706
29   
Generated by ForceBalance from scan.xyz: Frame 12 of 24
C       -2.3283079220    1.0060554318   -0.4954092208
C       -3.6955153637    0.8437750496   -0.4781073978
C       -1.5140322465   -0.1477201617   -0.5251780729
C       -4.1723315167   -0.4830585789   -0.4920728868
C        0.7520502337    1.1044448510   -0.0866295188
C        0.7463394137   -0.1532393614    0.7577415693
C       -0.0092838231   -0.1171112094   -0.5582673784
C        0.9193623536    0.3577582178    3.2504400515
C       -5.9880277849   -2.0198342495   -0.4794929313
C        0.0367245451   -0.1803366846    2.0962372534
N       -2.0447525065   -1.3731803101   -0.5530168101
N       -3.3732298540   -1.5446468928   -0.5370187575
N        0.6229471168   -0.8635845630   -1.6330369252
O       -5.5124386823   -0.6610037062   -0.4643209452
H       -1.8833519446    1.9959355420   -0.4964495193
H       -4.3936186269    1.6750956962   -0.4599894568
H        0.1985346266    1.9580120405    0.2949609050
H        1.6504433189    1.3518869314   -0.6425344182
H        1.6555735100   -0.7480342142    0.7064877765
H        1.9172019950    0.6292232036    2.8910366489
H        1.0512073747   -0.3860769027    4.0421295849
H        0.4886403802    1.2527273427    3.7100759123
H       -7.0750340259   -1.9386046646   -0.4496239271
H       -5.6179742400   -2.5695705380    0.3897150952
H       -5.6639798830   -2.5337638186   -1.3880615135
H       -0.8875229059    0.4035848243    2.0316449880
H       -0.2819032614   -1.2078480477    2.3056534419
H        0.3293726873   -0.4760876509   -2.5303562733
H        0.2667003660   -1.8195084911   -1.6041582811
29   
Generated by ForceBalance from scan.xyz: Frame 13 of 24
C       -2.2886398828    1.0216809385   -0.5157248074
C       -3.6556264618    0.8567581850   -0.5123283430
C       -1.4722086365   -0.1308360340   -0.5327385835
C       -4.1297274182   -0.4710466896   -0.5265110592
C        0.7857847065    1.1298992278   -0.0773665982
C        0.7715500092   -0.1206464821    0.7765966803
C        0.0327823881   -0.0971739579   -0.5490488346
C        0.9295245152    0.3747785452    3.2660453172
C       -5.9425639769   -2.0111381781   -0.5277871431
C        0.0431819016   -0.1403818738    2.1071213713
N       -2.0002503295   -1.3574842323   -0.5615012267
N       -3.3284699360   -1.5314343856   -0.5589852229
N        0.6791662833   -0.8503858250   -1.6105029757
O       -5.4697231074   -0.6513623500   -0.5124072962
H       -1.8456155919    2.0124269463   -0.5157919758
H       -4.3554389509    1.6868045258   -0.5047207251
H        0.2258324338    1.9856949034    0.2898379901
H        1.6903983150    1.3746020764   -0.6243753232
H        1.6826826127   -0.7139157705    0.7421835062
H        1.8013520843    0.9201713435    2.8919703870
H        1.2818907264   -0.4441630851    3.9007486937
H        0.3751377770    1.0562374560    3.9202695200
H       -7.0299793882   -1.9318958062   -0.5098760680
H       -5.5808279197   -2.5570515808    0.3473130418
H       -5.6078145761   -2.5276887503   -1.4309766093
H       -0.8716759969    0.4561820124    2.0344466733
H       -0.2721151485   -1.1721048613    2.3005328977
H        0.3952675483   -0.4703881500   -2.5141299126
H        0.3244853355   -1.8067868485   -1.5785843791
29   
Generated by ForceBalance from scan.xyz: Frame 14 of 24
C       -2.2920469095    1.0155485973   -0.5236832855
C       -3.6599030851    0.8579437320   -0.5194794928
C       -1.4814372029   -0.1411621770   -0.5300465384
C       -4.1410952884   -0.4673754818   -0.5221576841
C        0.7833217051    1.1100983294   -0.0835214294
C        0.7615948563   -0.1335940463    0.7800934978
C        0.0237338213   -0.1160967294   -0.5461830713
C        0.9246783546    0.3771701183    3.2569234170
C       -5.9621473730   -1.9978341021   -0.5111375942
C        0.0319297147   -0.1374178793    2.1103590984
N       -2.0160321234   -1.3651508746   -0.5479262227
N       -3.3451730270   -1.5320675088   -0.5446408273
N        0.6662859034   -0.8810294755   -1.6016082248
O       -5.4820460733   -0.6405184496   -0.5073260540
H       -1.8438462462    2.0039220824   -0.5323139877
H       -4.3553149012    1.6917137749   -0.5195395332
H        0.2277582835    1.9716415604    0.2771028428
H        1.6896480955    1.3459765958   -0.6315513866
H        1.6693096908   -0.7324101786    0.7509033113
H        1.6310277989    1.1362623008    2.9063270278
H        1.4860664644   -0.4386389429    3.7238190517
H        0.3213248312    0.8275863821    4.0532286809
H       -7.0491340874   -1.9126176129   -0.4946467191
H       -5.6038832514   -2.5380194865    0.3689275303
H       -5.6296180126   -2.5240317773   -1.4095661026
H       -0.8780851347    0.4668079871    2.0362607926
H       -0.2822002355   -1.1681369493    2.3130162996
H        0.3848886993   -0.5063806105   -2.5082557886
H        0.3062490918   -1.8351592025   -1.5625200524
29   
Generated by ForceBalance from scan.xyz: Frame 15 of 24
C       -2.2742544759    1.0192308649   -0.5343590981
C       -3.6423500988    0.8638247194   -0.5353429228
C       -1.4655711270   -0.1388449638   -0.5327196072
C       -4.1251571334   -0.4609268939   -0.5348217258
C        0.7983079130    1.1121584736   -0.0826936219
C        0.7716496586   -0.1272639411    0.7871061990
C        0.0396705582   -0.1151441844   -0.5427337739
C        0.9216238444    0.3913297888    3.2579241066
C       -5.9483566288   -1.9887064973   -0.5257310893
C        0.0359168464   -0.1237077922    2.1131707851
N       -2.0016925962   -1.3622017077   -0.5478674734
N       -3.3310664647   -1.5270986003   -0.5495883094
N        0.6861838265   -0.8861663078   -1.5911957042
O       -5.4663825029   -0.6320500513   -0.5251236523
H       -1.8244590848    2.0068732072   -0.5450501086
H       -4.3365475542    1.6985894775   -0.5416989577
H        0.2420252870    1.9759740542    0.2713927320
H        1.7076117125    1.3446386247   -0.6271930743
H        1.6787634591   -0.7272485544    0.7647408771
H        1.4559528376    1.3024818395    2.9687910544
H        1.6571905215   -0.3623803726    3.5592113332
H        0.3218090017    0.6197069978    4.1462900497
H       -7.0352848215   -1.9019325662   -0.5143924296
H       -5.5947409408   -2.5259169228    0.3580276959
H       -5.6125846993   -2.5188837265   -1.4206083014
H       -0.8696130638    0.4881037947    2.0362732812
H       -0.2900917939   -1.1491719230    2.3260454046
H        0.4095435479   -0.5157660885   -2.5010467203
H        0.3247831934   -1.8396425541   -1.5489571665
29   
Generated by ForceBalance from scan.xyz: Frame 16 of 24
C       -2.2352903426    1.0337484654   -0.5502330481
C       -3.6030625537    0.8758674703   -0.5613349328
C       -1.4244097079   -0.1227706992   -0.5427965925
C       -4.0840362440   -0.4495380629   -0.5646652554
C        0.8351841256    1.1292969715   -0.0752102654
C        0.8036286925   -0.1112079277    0.7932926751
C        0.0808705860   -0.0977464480   -0.5418519586
C        0.9251367119    0.4246706333    3.2620826335
C       -5.9048457273   -1.9803347478   -0.5694648431
C        0.0599211618   -0.1089663763    2.1132121615
N       -1.9585939924   -1.3468642162   -0.5623123968
N       -3.2876676694   -1.5140778457   -0.5738976107
N        0.7355681111   -0.8676920349   -1.5859200688
O       -5.4250320512   -0.6229132177   -0.5649048720
H       -1.7872873904    2.0222268704   -0.5573941623
H       -4.2985530531    1.7094912910   -0.5726161504
H        0.2757552883    1.9921751361    0.2760322860
H        1.7484903289    1.3632620567   -0.6122843061
H        1.7111523776   -0.7106550453    0.7761990779
H        1.2710202507    1.4429925520    3.0523221783
H        1.8106908994   -0.2028426724    3.4131583754
H        0.3664021389    0.4432006127    4.2041536338
H       -6.9919637676   -1.8952750644   -0.5660999971
H       -5.5568960115   -2.5172661806    0.3167071004
H       -5.5616616843   -2.5097060193   -1.4620025425
H       -0.8498611566    0.4969214128    2.0290728174
H       -0.2732876936   -1.1298362505    2.3382743358
H        0.4657169564   -0.4966307200   -2.4975236186
H        0.3743463822   -1.8213901387   -1.5471581869
29   
Generated by ForceBalance from scan.xyz: Frame 17 of 24
C       -2.2166985024    1.0381681835   -0.5567150642
C       -3.5847878176    0.8835565179   -0.5733383023
C       -1.4087178742   -0.1203265629   -0.5446081400
C       -4.0688806835   -0.4407178676   -0.5771931927
C        0.8517068678    1.1265270527   -0.0677580932
C        0.8149607957   -0.1148723408    0.7998670696
C        0.0965737230   -0.0985071399   -0.5377116249
C        0.9167929876    0.4457219294    3.2687156396
C       -5.8932539675   -1.9672096025   -0.5874882995
C        0.0684850713   -0.1115911630    2.1167246744
N       -1.9456639916   -1.3431772495   -0.5652003433
N       -3.2750728652   -1.5071991956   -0.5821052994
N        0.7537257086   -0.8693627155   -1.5795610123
O       -5.4102607738   -0.6109109065   -0.5826504099
H       -1.7662223781    2.0255374494   -0.5630063648
H       -4.2782311217    1.7188238407   -0.5883760257
H        0.2928374764    1.9901391753    0.2823220785
H        1.7674987477    1.3590388274   -0.6011873585
H        1.7212239442   -0.7161689903    0.7849146125
H        1.0630922085    1.5260009867    3.1548773530
H        1.9146027940   -0.0072475235    3.2801726021
H        0.4441862842    0.2691718925    4.2403321582
H       -6.9801720530   -1.8795882473   -0.5885043776
H       -5.5500575842   -2.5038882738    0.3006889814
H       -5.5478008930   -2.4984591030   -1.4780306524
H       -0.8468235748    0.4856376817    2.0248348769
H       -0.2723251630   -1.1270727612    2.3542958468
H        0.4882847468   -0.4973271381   -2.4920493831
H        0.3904441053   -1.8223505632   -1.5425769217
29   
Generated by ForceBalance from scan.xyz: Frame 18 of 24
C       -2.1952911708    1.0424135377   -0.5635029181
C       -3.5636755444    0.8912512913   -0.5861692412
C       -1.3906459293   -0.1183126687   -0.5451804026
C       -4.0508783518   -0.4318951006   -0.5894370309
C        0.8700529369    1.1250865482   -0.0602191625
C        0.8281125481   -0.1157862930    0.8083645145
C        0.1145984865   -0.0992453048   -0.5317685332
C        0.9144673817    0.4638300382    3.2810460035
C       -5.8788912147   -1.9538385962   -0.6047936998
C        0.0780107230   -0.1100399071    2.1224237096
N       -1.9303812011   -1.3399577102   -0.5657943339
N       -3.2600862286   -1.5006082854   -0.5884561008
N        0.7746631734   -0.8721547168   -1.5702745116
O       -5.3926171818   -0.5987110007   -0.6006782215
H       -1.7421020724    2.0285561872   -0.5697228910
H       -4.2549541865    1.7282115677   -0.6061910446
H        0.3113816906    1.9899230276    0.2868980679
H        1.7881688406    1.3553587506   -0.5906183392
H        1.7335019672   -0.7183958571    0.7970676915
H        0.8540600703    1.5579940438    3.2983206850
H        1.9763490290    0.2220316464    3.1617566804
H        0.5751938086    0.0953067039    4.2538308073
H       -6.9655755627   -1.8635849399   -0.6109679095
H       -5.5410597230   -2.4894105626    0.2861060963
H       -5.5306627179   -2.4878568513   -1.4925953021
H       -0.8411219572    0.4795801873    2.0208771886
H       -0.2682933952   -1.1221538334    2.3649730247
H        0.5134552995   -0.5006123272   -2.4841759437
H        0.4097898268   -1.8245541144   -1.5337565571
29   
Generated by ForceBalance from scan.xyz: Frame 19 of 24
C       -2.2011845833    1.0350027631   -0.5733264435
C       -3.5703502392    0.8908390889   -0.5946728298
C       -1.4023312528   -0.1295473874   -0.5452905719
C       -4.0645852426   -0.4296762985   -0.5867883994
C        0.8660585925    1.1049542633   -0.0709335521
C        0.8176283241   -0.1292414755    0.8071549799
C        0.1029935025   -0.1188188106   -0.5322887089
C        0.9115803190    0.4655193141    3.2836513324
C       -5.9006321078   -1.9420993918   -0.5891303569
C        0.0683840673   -0.1087173456    2.1221214701
N       -1.9485792541   -1.3484023538   -0.5557185709
N       -3.2791511582   -1.5022958150   -0.5768686697
N        0.7578575808   -0.9032434264   -1.5655868924
O       -5.4072029245   -0.5895747651   -0.5965423116
H       -1.7428721149    2.0186744153   -0.5878007256
H       -4.2572322724    1.7312147795   -0.6217100385
H        0.3129470914    1.9756207227    0.2703536929
H        1.7846363354    1.3255265613   -0.6046644113
H        1.7198197571   -0.7366348526    0.7997736116
H        0.6550110307    1.5124130337    3.4784331626
H        1.9795676370    0.4554016774    3.0418856014
H        0.7619950729   -0.0883709821    4.2150492771
H       -6.9868259193   -1.8461538707   -0.5960495314
H       -5.5655857382   -2.4718535546    0.3062885049
H       -5.5552929439   -2.4854893293   -1.4723609495
H       -0.8472593415    0.4836567500    2.0127415367
H       -0.2829550166   -1.1184675917    2.3651613535
H        0.4976768606   -0.5373746555   -2.4820774606
H        0.3879140942   -1.8533604994   -1.5213980199
29   
Generated by ForceBalance from scan.xyz: Frame 20 of 24
C       -2.3395201878    1.0739863754   -0.3702492345
C       -3.6915930350    0.8142233982   -0.3538898652
C       -1.4482033156   -0.0094236846   -0.5345737005
C       -4.0758457535   -0.5339042175   -0.5053317922
C        0.7339484273    1.3490503046    0.0032561372
C        0.8298166039    0.0160508962    0.7159103921
C        0.0500094649    0.1304778923   -0.5815483935
C        1.0162383795    0.2718853322    3.2465141826
C       -5.7803813919   -2.1879045425   -0.6367561123
C        0.1476916285   -0.1967698954    2.0520845502
N       -1.8935278013   -1.2593587401   -0.6881854544
N       -3.2063889027   -1.5252926197   -0.6745500501
N        0.7125695178   -0.4581921124   -1.7331656170
O       -5.3996530716   -0.8082372686   -0.4806160989
H       -1.9644360271    2.0874217732   -0.2699011831
H       -4.4449566436    1.5873214194   -0.2375814068
H        0.1301902687    2.1195689425    0.4747473196
H        1.6031877705    1.7130733589   -0.5346035884
H        1.7766727560   -0.5054272452    0.5947608531
H        0.5375853791    1.0845719210    3.8019808495
H        1.9874330540    0.6460615152    2.9071762510
H        1.2056320502   -0.5394976449    3.9557739152
H       -6.8696003389   -2.1875661550   -0.5850356964
H       -5.3561198177   -2.7998469314    0.1633723390
H       -5.4395830005   -2.5774574026   -1.5994273911
H       -0.8119004434    0.3309254249    2.0608785088
H       -0.1027864409   -1.2587872025    2.1549300684
H        0.3774483013   -0.0036347369   -2.5832203359
H        0.4226065255   -1.4345387113   -1.7979296902
29   
Generated by ForceBalance from scan.xyz: Frame 21 of 24
C       -2.3486199896    1.0684949099   -0.3840254793
C       -3.7018355522    0.8147176283   -0.3663580691
C       -1.4609587092   -0.0199803318   -0.5341124434
C       -4.0922989777   -0.5332702476   -0.5020774225
C        0.7286318495    1.3324057935   -0.0104235486
C        0.8142302669    0.0087845234    0.7200140168
C        0.0382384306    0.1103049348   -0.5806104644
C        1.0141173270    0.2731138325    3.2410752750
C       -5.8041852656   -2.1813079332   -0.6160467228
C        0.1263592495   -0.1826010277    2.0583316117
N       -1.9120255538   -1.2695162874   -0.6731068680
N       -3.2260981688   -1.5297210745   -0.6580937672
N        0.6991390637   -0.4973578198   -1.7233284652
O       -5.4173840730   -0.8016051779   -0.4759417091
H       -1.9696959300    2.0815573596   -0.2954501397
H       -4.4519299423    1.5924554841   -0.2603916501
H        0.1288557372    2.1129643161    0.4496506665
H        1.6010087307    1.6838792512   -0.5515750092
H        1.7581217948   -0.5203774956    0.6084576631
H        0.4530239105    0.8537179520    3.9794663284
H        1.8533504980    0.8835887501    2.8922857976
H        1.4491260098   -0.5848517228    3.7642896937
H       -6.8934636974   -2.1753857281   -0.5658707100
H       -5.3838193655   -2.7855329952    0.1919597876
H       -5.4638811785   -2.5839503726   -1.5734909129
H       -0.8238332048    0.3608916812    2.0647482797
H       -0.1221145461   -1.2453678559    2.1583172510
H        0.3681109943   -0.0519474963   -2.5798164102
H        0.4032775524   -1.4726624851   -1.7758970513
29   
Generated by ForceBalance from scan.xyz: Frame 22 of 24
C       -2.3497237576    1.0622269883   -0.3926976743
C       -3.7043689182    0.8163555952   -0.3742584277
C       -1.4688197182   -0.0331101710   -0.5319550787
C       -4.1015434459   -0.5308206820   -0.4983185936
C        0.7250108395    1.3146674047   -0.0165084438
C        0.8042206564   -0.0031658702    0.7248807783
C        0.0308759645    0.0908201190   -0.5778427787
C        1.0067644972    0.2750027298    3.2339602944
C       -5.8221604082   -2.1702380266   -0.5997102615
C        0.1127178761   -0.1800224064    2.0635496515
N       -1.9261310578   -1.2815969379   -0.6599516759
N       -3.2415859731   -1.5341704953   -0.6441721575
N        0.6908109555   -0.5287336978   -1.7146615885
O       -5.4280658653   -0.7914531976   -0.4714118588
H       -1.9648068902    2.0737878823   -0.3127488776
H       -4.4502902980    1.5991319675   -0.2761152186
H        0.1272360164    2.1011093014    0.4363139826
H        1.5997133901    1.6586701586   -0.5586901009
H        1.7462126505   -0.5370138415    0.6192995420
H        0.4215586439    0.6089718538    4.0962871201
H        1.6762918162    1.0847327220    2.9245113593
H        1.6515731277   -0.5440065875    3.5716595024
H       -6.9114496405   -2.1579848908   -0.5510198284
H       -5.4060786774   -2.7694817921    0.2142020600
H       -5.4828244768   -2.5832149648   -1.5530907268
H       -0.8329938831    0.3719103582    2.0689206551
H       -0.1354117481   -1.2426537282    2.1706012590
H        0.3626832682   -0.0890278071   -2.5752119458
H        0.3911725068   -1.5032664209   -1.7596362041
29   
Generated by ForceBalance from scan.xyz: Frame 23 of 24
C       -2.3315957411    1.0678126896   -0.4024220637
C       -3.6868477990    0.8250990439   -0.3886469831
C       -1.4531510676   -0.0303721774   -0.5344989913
C       -4.0865077598   -0.5216281366   -0.5098296539
C        0.7405951180    1.3154342298   -0.0150745805
C        0.8151341806   -0.0003167812    0.7310439970
C        0.0468432613    0.0912962990   -0.5750488035
C        1.0041824045    0.2881720456    3.2348025378
C       -5.8105031045   -2.1572663743   -0.6129900006
C        0.1180377295   -0.1706460356    2.0668159700
N       -1.9125923923   -1.2783394777   -0.6599835218
N       -3.2286682810   -1.5277537161   -0.6486998594
N        0.7104515556   -0.5331793985   -1.7069965337
O       -5.4137227344   -0.7789849831   -0.4875736811
H       -1.9444630667    2.0786972637   -0.3242921965
H       -4.4313613986    1.6099027885   -0.2961492143
H        0.1422405127    2.1040508217    0.4332661876
H        1.6181330202    1.6566262971   -0.5543979251
H        1.7565864777   -0.5360126121    0.6306790119
H        0.4337467544    0.3908409139    4.1636056737
H        1.4854090361    1.2460062180    3.0077921454
H        1.8091845759   -0.4329428658    3.4172997833
H       -6.8999559743   -2.1423173939   -0.5689653794
H       -5.3992730749   -2.7547779794    0.2046526324
H       -5.4680968565   -2.5741759760   -1.5635581018
H       -0.8251937454    0.3867744374    2.0698466778
H       -0.1390148826   -1.2303708739    2.1859726919
H        0.3864700283   -0.0960197011   -2.5704117918
H        0.4095892000   -1.5074343671   -1.7497354718
29   
Generated by ForceBalance from scan.xyz: Frame 24 of 24
C       -2.3370029140    1.0602666256   -0.4047463308
C       -3.6934489063    0.8246369877   -0.3864138985
C       -1.4642406332   -0.0429185090   -0.5328731373
C       -4.1004761170   -0.5206032266   -0.4993071280
C        0.7386185466    1.2921108911   -0.0249522302
C        0.8078973993   -0.0212052231    0.7265938407
C        0.0363045956    0.0701136294   -0.5778646443
C        0.9934054821    0.2889729762    3.2297673181
C       -5.8331723064   -2.1478876962   -0.5895705581
C        0.1142217601   -0.1811615869    2.0639485345
N       -1.9305435843   -1.2890608366   -0.6505338335
N       -3.2478924241   -1.5316500676   -0.6347851449
N        0.6934198563   -0.5633004603   -1.7085969396
O       -5.4289539460   -0.7710325588   -0.4724853896
H       -1.9445910482    2.0695862381   -0.3330469537
H       -4.4336739391    1.6137710724   -0.2964105483
H        0.1461355941    2.0858870911    0.4219986017
H        1.6169360694    1.6261259424   -0.5674438897
H        1.7458509422   -0.5627136612    0.6255413118
H        0.4733206425    0.1852381178    4.1881762085
H        1.2764899300    1.3404572850    3.1073510458
H        1.9181610595   -0.2963313940    3.2862426169
H       -6.9224258034   -2.1270384135   -0.5430649805
H       -5.4231049844   -2.7431481877    0.2302947400
H       -5.4951936558   -2.5716606072   -1.5386857774
H       -0.8270520404    0.3809000859    2.0666410294
H       -0.1596954690   -1.2345883034    2.2023060099
H        0.3699824129   -0.1280761378   -2.5731836316
H        0.3868755790   -1.5359935047   -1.7462285311
