25

C     -1.19690   -6.54797   -2.28706
C      0.91498   -7.47138   -3.08256
C     -0.50284   -5.66642   -1.45016
C      1.58385   -6.59193   -2.23720
C      0.89483   -5.69332   -1.42631
C     -0.47976   -7.43080   -3.09234
C     -0.68825   -2.40780   -3.91320
C     -1.29701   -1.11827   -3.37186
C     -0.93226   -2.60448   -1.64227
C     -1.87615   -3.72752   -1.21419
O     -0.10459   -2.98038   -2.73677
O     -1.73460   -1.50273   -2.06033
O     -1.15701   -4.80983   -0.60234
F      2.93178   -6.59341   -2.20456
F      1.57533   -4.84275   -0.64201
Br    -1.43366   -8.64260   -4.23025
H     -2.28137   -6.54350   -2.28702
H      1.48053   -8.15851   -3.70154
H     -1.45385   -3.07304   -4.33458
H      0.10743   -2.25597   -4.64490
H     -0.54868   -0.31890   -3.30242
H     -2.16534   -0.76533   -3.93276
H     -0.26870   -2.32535   -0.81550
H     -2.45736   -4.07457   -2.07594
H     -2.56041   -3.35343   -0.45004
