28

C      0.74452   -1.24738   -2.57808
C      0.77026    1.89072    2.86076
C      1.00992    1.17360    1.67072
C      0.99661   -1.71057   -3.86548
C     -1.27443    0.27548    1.67470
C      1.13094   -3.98084   -3.00075
C      0.67646   -2.11875   -1.47505
C     -0.48525    1.76998    3.42409
C     -1.48097    0.98105    2.84392
C      0.00586    0.39456    1.10706
C      0.87574   -3.48678   -1.72441
C      1.18824   -3.08150   -4.06409
C      0.40065   -1.61356   -0.10195
C     -2.25215    1.75302    4.79528
O      0.29152   -2.28464    0.89839
O     -0.98489    2.38478    4.55439
O     -2.63607    1.07049    3.58869
O      0.27681   -0.24242   -0.11370
F      0.82874   -4.38270   -0.72642
Cl     1.50609   -3.68491   -5.67373
H      0.59359   -0.18787   -2.40965
H      1.53767    2.50976    3.31353
H      1.97864    1.22088    1.18411
H      1.04435   -1.02456   -4.70425
H     -2.04339   -0.34101    1.22323
H      1.27869   -5.04571   -3.14297
H     -2.14580    1.02011    5.60667
H     -2.99759    2.51459    5.03171
