47

C      4.93169    1.72826   -1.85047
C      8.04057    1.53229   -3.87178
C      7.95953    0.23971   -4.40608
C      7.03932    1.98058   -3.01563
C      6.89507   -0.59239   -4.07203
C      4.25432   -2.15308   -3.58619
C      3.17188   -2.64934   -2.79173
C      5.95089    1.15123   -2.68401
C      5.86868   -0.16407   -3.20800
C      4.77740   -1.07835   -2.90563
C      3.10581   -1.85626   -1.67599
C      0.26465    1.79810    0.33326
C      0.60295    1.44762   -1.13942
C     -1.52487    0.00527    0.70574
C      0.95968   -0.50630    1.08735
C     -0.65806   -0.75535   -1.46140
C     -0.15323    0.55556    1.13847
C      0.72748   -0.07232   -1.32444
C     -3.03374   -0.60486   -1.06172
C      2.22215   -1.86229   -0.47217
N      4.14370    2.28734   -1.19904
N     -1.72296   -0.06033   -0.74073
N      1.57345   -0.58489   -0.23943
O      4.08069   -0.89898   -1.73763
H      8.87501    2.18117   -4.12095
H      8.73723   -0.12444   -5.07197
H      7.07694    2.98263   -2.59962
H      6.86163   -1.60451   -4.46339
H      4.57677   -2.51897   -4.55189
H      2.51508   -3.47828   -3.02064
H      1.14582    2.23719    0.81262
H     -0.53278    2.54716    0.37659
H     -0.16882    1.82945   -1.81302
H      1.55759    1.90216   -1.41169
H     -1.67424   -0.98594    1.18131
H     -2.30704    0.66348    1.10412
H      1.74286   -0.25538    1.81609
H      0.53624   -1.47858    1.39912
H     -0.93909   -0.75278   -2.52086
H     -0.58113   -1.82087   -1.16227
H     -0.26725    0.83576    2.19263
H      1.27066   -0.26657   -2.25385
H     -3.20367   -0.55637   -2.14244
H     -3.81194   -0.01133   -0.56984
H     -3.15822   -1.65857   -0.74218
H      1.51877   -2.70965   -0.58777
H      2.83038   -2.08631    0.41434
