28

C     -1.11709    2.64192   -2.21040
C      1.69419    0.35712    2.27976
C      1.56153   -0.08448    0.94895
C     -1.05048    4.02820   -2.08987
C     -0.78106    0.64399    0.87711
C      1.28362    3.84176   -1.41982
C     -0.01490    1.82994   -1.90909
C      0.58608    0.93989    2.86540
C     -0.62105    1.07800    2.17898
C      0.35459    0.06888    0.27446
C      1.17373    2.46166   -1.53964
C      0.15311    4.61481   -1.68695
C     -0.14954    0.34437   -2.06263
C     -0.93657    1.76180    4.28652
O     -0.60989   -0.16860   -3.05574
O      0.46361    1.48285    4.12796
O     -1.54521    1.70592    2.98306
O      0.26117   -0.44691   -1.02349
F      2.28071    1.71821   -1.31951
Cl     0.25652    6.35388   -1.52920
H     -2.03836    2.16836   -2.53577
H      2.62973    0.25147    2.81895
H      2.39792   -0.53993    0.43082
H     -1.91395    4.64731   -2.30791
H     -1.72533    0.73506    0.35195
H      2.23017    4.28823   -1.13548
H     -1.39091    0.99635    4.92977
H     -1.06200    2.76459    4.69974
