32

C      7.66746   -4.06756    2.05678
C      7.40361    3.32973    4.94223
C      8.01214    4.37885    4.24791
C      4.92279   -5.99103    6.11452
C      7.46172    2.04070    4.41902
C      8.66867    4.12269    3.04236
C      5.34567   -4.67234    5.82495
C      5.31926   -6.88601    5.14360
C      8.12237    1.77720    3.20404
C      8.74251    2.83447    2.49260
C      6.06245   -4.56722    4.63507
C      8.12395    0.37907    2.74154
C      7.72563   -1.69136    2.74043
C      6.58891   -3.33298    4.14213
C      7.30504   -3.06214    3.00752
C      9.47062    2.64026    1.18536
N      7.95286   -4.90207    1.29425
N      7.50523   -0.62854    3.46640
N      8.69452   -0.04839    1.62707
O      8.43003   -1.43349    1.62258
S      6.20776   -6.14082    3.87006
H      6.88915    3.51378    5.88146
H      7.97705    5.39176    4.64096
H      4.35389   -6.27424    6.99324
H      6.99545    1.21419    4.94352
H      9.13967    4.94405    2.50800
H      5.14216   -3.81209    6.45508
H      5.13342   -7.95269    5.11083
H      6.38585   -2.47026    4.77336
H     10.30066    1.93540    1.28868
H      8.81346    2.22141    0.41779
H      9.86445    3.59461    0.82628
