32

C      6.78367   -3.16506    5.08517
C      7.67787    3.43603    4.90930
C      8.04497    4.41195    3.97886
C      6.43016   -7.59715    4.25529
C      7.60896    2.10357    4.51084
C      8.33758    4.04186    2.66426
C      6.57419   -6.19513    4.39350
C      6.70209   -8.04190    2.97792
C      7.90315    1.72614    3.18649
C      8.27624    2.70823    2.23550
C      6.95882   -5.56931    3.21065
C      7.79945    0.29190    2.87263
C      7.45302   -1.76480    3.18963
C      7.21742   -4.19580    2.89240
C      7.14950   -3.09429    3.70348
C      8.60677    2.38700    0.79866
N      6.48146   -3.26290    6.20653
N      7.43115   -0.63543    3.83889
N      8.03532   -0.24664    1.68828
O      7.80488   -1.62698    1.89307
S      7.13783   -6.75440    1.92627
H      7.44744    3.70924    5.93532
H      8.10388    5.45689    4.27277
H      6.13732   -8.25797    5.06406
H      7.32615    1.33214    5.21847
H      8.62237    4.80717    1.94639
H      6.40374   -5.66257    5.32024
H      6.66718   -9.05857    2.60688
H      7.50887   -3.99286    1.86429
H      9.44574    1.68868    0.72593
H      7.76644    1.90405    0.29138
H      8.86434    3.30033    0.25610
