43

C     -1.61909   -2.39172    2.50927
C     -2.40228   -3.05989    3.47542
C     -3.57641   -1.90136    1.20845
C     -2.17214   -1.80457    1.37185
C     -3.78599   -3.16112    3.35249
C     -4.51595   -1.44203    0.20596
C     -4.33955   -2.56293    2.20983
C     -5.77798   -1.80480    0.62732
C     -4.15670    0.86817   -0.74067
C     -3.17270    3.04976   -1.22363
C     -2.51321    1.04971   -2.61985
C     -1.71767    3.44525   -0.99285
C     -1.84533    2.13793   -3.45553
C     -1.28716   -1.09050    0.37661
C     -4.65582   -3.85169    4.37328
C     -7.11966   -1.50959    0.03978
C     -4.21299   -0.64084   -1.02477
N     -5.66886   -2.48533    1.83197
N     -3.30967    1.62160   -1.52211
O     -4.86105    1.37118    0.13475
S     -0.66793    3.15452   -2.48810
H     -0.54401   -2.32975    2.66337
H     -1.91301   -3.49881    4.34221
H     -3.75417    3.23264   -0.31953
H     -3.61125    3.65657   -2.02463
H     -3.16080    0.45831   -3.27781
H     -1.73316    0.38706   -2.22738
H     -1.65891    4.50944   -0.74994
H     -1.30625    2.87295   -0.15728
H     -1.25068    1.66424   -4.24068
H     -2.59057    2.77259   -3.94254
H     -1.27243   -1.60042   -0.59415
H     -1.61987   -0.06087    0.20389
H     -0.25547   -1.04730    0.73642
H     -5.38847   -3.16152    4.81162
H     -5.21562   -4.68563    3.92993
H     -4.05520   -4.25692    5.19181
H     -7.79707   -2.36712    0.12796
H     -7.58588   -0.65189    0.53881
H     -7.03469   -1.25997   -1.02013
H     -3.29329   -0.99436   -1.48854
H     -5.00175   -0.78357   -1.77435
H     -6.44598   -2.87588    2.34455
