19

C      2.15967   -0.44932    0.06829
C      1.04172    0.05212    0.72787
C      2.42898   -2.09865    1.80744
C      2.87806   -1.53812    0.59989
C      0.61564   -0.50107    1.93939
C      1.31999   -1.58486    2.48009
C      4.04699   -2.15448   -0.08166
C      4.32799   -3.62307    0.14839
N      4.89370   -1.58528   -0.87259
O      4.67724   -0.20694   -1.06677
Cl    -0.78231    0.17155    2.73536
Cl     0.83599   -2.32529    3.98726
H      2.46953    0.00056   -0.86443
H      0.48757    0.88566    0.30801
H      2.94304   -2.94298    2.25121
H      3.43073   -4.22622   -0.02322
H      5.11917   -3.95267   -0.52639
H      4.66149   -3.80774    1.17552
H      5.42692    0.03467   -1.63468
