23

C      2.40171   -3.55804    4.32591
C      1.45051   -1.15318    0.03268
C      0.59428   -0.33669    0.76107
C      1.92301   -0.78654    2.76004
C      2.78364   -1.62833    2.04502
C      2.51509   -1.80099    0.67069
C      0.85266   -0.17505    2.11999
C      3.52256   -3.64747    3.38205
C      3.94228   -2.27317    2.80208
N      1.50324   -3.49066    5.06062
N      4.35927   -1.39750    3.90470
N      3.33452   -2.66987   -0.18408
O      3.38721   -2.40889   -1.38966
O      3.91627   -3.63159    0.34181
F      0.03489    0.61638    2.84346
H      1.30376   -1.30661   -1.02981
H     -0.24962    0.16445    0.29867
H      2.09692   -0.61854    3.81649
H      4.37741   -4.09736    3.89941
H      3.24960   -4.31515    2.56288
H      4.75169   -2.48858    2.09801
H      4.77468   -0.54431    3.53416
H      5.07838   -1.86027    4.45823
