39

C     -1.93875   -0.80848    0.46607
C     -0.73823   -1.18662   -0.15423
C     -2.72151   -1.74667    1.14747
C     -0.29128   -2.51353   -0.10811
C     -4.07677   -9.37799    1.67968
C     -2.28315   -3.06882    1.19120
C     -4.33694   -8.33141    0.72535
C     -1.09195   -3.42578    0.56524
C     -4.81914  -10.47571    1.31790
C     -5.25139   -8.84164   -0.20410
C     -2.98160   -4.20718    1.85403
C     -3.76331   -6.99157    0.71783
C     -4.92513  -11.82383    1.95671
C     -5.87813   -8.19850   -1.39900
C     -6.48036  -11.00473   -0.50970
C     -2.78686   -6.67836    1.87476
N     -5.52465  -10.13664    0.16095
N     -2.20104   -5.35928    1.73586
O     -4.04872   -4.16270    2.44179
O     -4.01435   -6.11883   -0.10867
O     -0.85820   -5.93940   -0.43526
O      0.39962   -5.36206    1.66643
S     -0.76297   -5.16552    0.80034
H     -2.26199    0.22739    0.41488
H     -0.14583   -0.44208   -0.67847
H     -3.65310   -1.47397    1.63403
H      0.63753   -2.81440   -0.58291
H     -3.41725   -9.33626    2.53665
H     -5.95468  -12.06883    2.24451
H     -4.56425  -12.62599    1.30083
H     -4.31502  -11.84174    2.86263
H     -5.57270   -8.69478   -2.32902
H     -6.97298   -8.23465   -1.34762
H     -5.56268   -7.15770   -1.44973
H     -7.48949  -10.87551   -0.10178
H     -6.50248  -10.77988   -1.57676
H     -6.18359  -12.04706   -0.38603
H     -1.98776   -7.42208    1.92194
H     -3.32711   -6.70925    2.82500
