55

C     -0.80967  -10.96257    3.00865
C     -1.07237  -10.42505    4.28979
C     -0.87461  -10.15254    1.89268
C     -1.37274   -9.08627    4.43120
C     -1.79827   -8.56479   -3.95428
C      0.30292   -9.16059   -2.94173
C     -1.58293   -6.58185    1.00445
C     -1.45694   -9.27695   -5.11379
C      0.65884   -9.87475   -4.08165
C     -1.77263   -6.03039    2.29350
C     -1.20907   -8.77515    1.99670
C     -1.44189   -8.22612    3.30230
C     -0.93148   -8.49195   -2.86297
C     -1.31176   -7.92947    0.83671
C     -0.22572   -9.92734   -5.16402
C     -1.71894   -6.82941    3.40904
C      0.33092  -15.00864   -6.47348
C      1.70600  -13.95696   -9.76539
C     -1.28648   -7.69581   -1.62643
C     -0.25272  -13.90310   -7.34256
C      1.99624  -13.33045   -8.40947
C      0.11674  -11.64717   -8.38973
C     -0.65419  -10.79955   -7.38163
N     -1.09408   -8.50557   -0.42997
N      0.75756  -12.82537   -7.68870
O      0.21508  -10.66332   -6.26812
Cl    -1.99744   -6.09869    4.98404
H     -0.54451  -12.01142    2.90561
H     -1.02393  -11.06539    5.16620
H     -0.63058  -10.57451    0.92264
H     -1.55683   -8.67247    5.41631
H     -2.75976   -8.05931   -3.91416
H      0.98317   -9.11617   -2.09616
H     -1.67451   -5.92019    0.15095
H     -2.15518   -9.30245   -5.94334
H      1.61863  -10.37992   -4.14822
H     -1.98319   -4.97067    2.39564
H      1.05452  -15.62839   -7.00711
H      0.80226  -14.60683   -5.57065
H     -0.48526  -15.66110   -6.15298
H      1.09710  -14.86065   -9.68633
H      1.21891  -13.25910  -10.45108
H      2.65858  -14.24571  -10.21700
H     -0.61990   -6.82823   -1.55853
H     -2.31120   -7.30197   -1.71673
H     -1.06261  -13.39577   -6.81745
H     -0.64634  -14.28516   -8.28528
H      2.65420  -12.46381   -8.50386
H      2.47929  -14.03979   -7.73689
H      0.92828  -11.06133   -8.82379
H     -0.52913  -12.01381   -9.18797
H     -0.88057   -9.83079   -7.84213
H     -1.60129  -11.26607   -7.08470
H     -1.53670   -9.41415   -0.52197
H      1.07541  -12.42514   -6.79321
