25   
Generated by ForceBalance from scan.xyz: Frame 1 of 24
C       -0.2291681804   -5.5432163733   -3.8058476834
C        0.0319751604   -4.7834487387   -2.6284015634
C       -0.4641634727   -4.7525575710   -4.9023159108
C       -0.0361897536   -1.0022804365   -1.8225818083
C        0.2404608229   -2.3720519471   -1.8595235012
C       -0.0001617853   -3.4173698093   -2.8393193816
C        0.4141641256   -0.5647951366   -0.5457438385
C       -2.2276397291   -0.2624612032   -2.8697803920
C        0.3305278278    0.8153760674    0.0304687363
C       -0.7117473355   -0.1503877006   -2.8598399978
N        0.9436921076   -1.5719012334    0.1544740742
N        0.8188893528   -2.6537362351   -0.6506856914
O       -2.9123450244   -0.4647806201   -3.8518046738
O       -2.7614680308   -0.0771484026   -1.6321580998
S       -0.3707744533   -3.0698988982   -4.5109459257
H       -0.2547723672   -6.6274296129   -3.8351657984
H        0.2073493554   -5.2336998306   -1.6562464750
H       -0.7015003467   -5.0566186587   -5.9136991019
H       -0.7104787289    1.1475536679    0.1010839726
H        0.7693615872    0.8255762398    1.0304211328
H        0.8702046202    1.5415784335   -0.5884720502
H       -0.3714781529   -0.3660585813   -3.8732855769
H       -0.4770219658    0.9014522522   -2.6610830534
H        1.2401004545   -3.5265425858   -0.3651100580
H       -3.7287345822   -0.1580749385   -1.7383263204
25   
Generated by ForceBalance from scan.xyz: Frame 2 of 24
C       -0.2359284959   -5.4151564813   -4.0281153163
C       -0.1092479143   -4.6907798657   -2.8056482354
C       -0.0935713844   -4.6140448774   -5.1327153326
C        0.0639851300   -0.9741419893   -1.8736315452
C        0.3398292724   -2.3406023283   -1.9612229066
C        0.1325320198   -3.3438956784   -2.9927386050
C        0.4711151651   -0.5951952334   -0.5625595860
C       -2.1305991873   -0.2296049207   -2.7957172818
C        0.3730885126    0.7580466399    0.0723627640
C       -0.6207228324   -0.0916732106   -2.8842018940
N        0.9765079503   -1.6352423762    0.1079522720
N        0.8747282051   -2.6797696321   -0.7478975860
O       -2.8392597275   -0.8162783935   -3.5872341341
O       -2.6275334539    0.3798669842   -1.6827052985
S        0.2027502305   -2.9659761450   -4.6950898536
H       -0.4398082230   -6.4792027007   -4.0853365641
H       -0.2324581955   -5.1378548531   -1.8240581539
H       -0.1602782939   -4.8906064727   -6.1771368325
H       -0.6690990613    1.0864468586    0.1359097143
H        0.7951365606    0.7252680354    1.0790680569
H        0.9215210306    1.5099978751   -0.5067601627
H       -0.3347587461   -0.3343012567   -3.9073691901
H       -0.3549049960    0.9520234861   -2.6932304027
H        1.3001938687   -3.5633515717   -0.5019820489
H       -3.5887390076    0.2070639967   -1.6830817233
25   
Generated by ForceBalance from scan.xyz: Frame 3 of 24
C       -0.2785923755   -5.3378024987   -4.0349891509
C       -0.2404869642   -4.5976430680   -2.8145948140
C        0.1358716082   -4.5982604006   -5.1134562109
C        0.0957357871   -0.9377634201   -1.8631834163
C        0.3992661791   -2.2969924972   -1.9443949881
C        0.2026457551   -3.3020727775   -2.9789424208
C        0.5268266762   -0.5376090651   -0.5658635449
C       -2.1390002691   -0.2258513677   -2.7024681450
C        0.4178177912    0.8192259941    0.0594618150
C       -0.6359056614   -0.0943416756   -2.8739137088
N        1.0717219741   -1.5615091973    0.1003056803
N        0.9749828727   -2.6141193461   -0.7450194134
O       -2.8810638320   -0.8653297253   -3.4188442076
O       -2.5862386557    0.4544274414   -1.6091750854
S        0.5926513949   -2.9929134980   -4.6525641157
H       -0.6138135588   -6.3668338115   -4.1113753693
H       -0.5645524825   -4.9892426577   -1.8554297191
H        0.1917425657   -4.8987581745   -6.1519744926
H       -0.6287475687    1.1259481172    0.1504874770
H        0.8710340046    0.8060887517    1.0530045550
H        0.9314406810    1.5765736017   -0.5440368352
H       -0.4048580612   -0.3935294665   -3.8962298979
H       -0.3580969335    0.9561222742   -2.7479793991
H        1.4087160750   -3.4940300409   -0.4989666767
H       -3.5455711875    0.2800354518   -1.5535185664
25   
Generated by ForceBalance from scan.xyz: Frame 4 of 24
C       -0.3333955120   -5.3169003511   -4.0707157582
C       -0.3815236892   -4.5629485570   -2.8580788015
C        0.3255650418   -4.6569379753   -5.0766599517
C        0.0680850506   -0.9843527453   -1.8407423056
C        0.4144036417   -2.3321734013   -1.9144152642
C        0.2384271745   -3.3374744119   -2.9568747610
C        0.5287674911   -0.5507087570   -0.5644204369
C       -2.2036753665   -0.3045076655   -2.6000988756
C        0.4024298162    0.8115468156    0.0456719492
C       -0.7114089374   -0.1934821345   -2.8574674063
N        1.1293105131   -1.5483922383    0.0950527995
N        1.0454399433   -2.6131347011   -0.7350036433
O       -2.9778701759   -1.0065827990   -3.2170653291
O       -2.5997806973    0.4737915307   -1.5531787024
S        0.9110374363   -3.1131745276   -4.5547314065
H       -0.7808408545   -6.2974916269   -4.1947535505
H       -0.8838703411   -4.8919090789   -1.9539479347
H        0.4934103870   -4.9845829155   -6.0948566195
H       -0.6483024634    1.0912273590    0.1677492572
H        0.8906789017    0.8263286925    1.0224788210
H        0.8725626382    1.5733980317   -0.5869930004
H       -0.5354750106   -0.5672346849   -3.8666720233
H       -0.4213808722    0.8605069913   -2.8163755210
H        1.4900706039   -3.4854356349   -0.4809181214
H       -3.5548636679    0.3064424530   -1.4359509048
25   
Generated by ForceBalance from scan.xyz: Frame 5 of 24
C       -1.1029530270   -5.0870506172   -4.3936710842
C       -1.3118851720   -4.3000265147   -3.2195283358
C        0.1437275795   -4.9042939639   -4.9367291484
C       -0.0449350015   -1.2208133287   -1.6944630664
C       -0.0727358126   -2.6112370407   -1.7546113880
C       -0.2230728286   -3.5303678158   -2.8823393920
C        0.1551077849   -0.9099430136   -0.3183780932
C       -1.7301403703    0.0883293887   -2.9675476419
C        0.2562072306    0.4429563075    0.3170521661
C       -0.2609106934   -0.2746092867   -2.8449261442
N        0.2557167206   -2.0252616635    0.4147768544
N        0.1138398266   -3.0380588155   -0.4703214631
O       -2.5254836432   -0.4210750185   -3.7300886350
O       -2.0901473099    1.0606433837   -2.0822213973
S        1.0835100374   -3.7768030735   -4.0191036225
H       -1.8484149964   -5.7487519322   -4.8221386525
H       -2.2387971827   -4.2748217666   -2.6559819617
H        0.5600915256   -5.3615062257   -5.8255885226
H       -0.6620504448    1.0182896442    0.1663949133
H        0.4387588121    0.3358912219    1.3885157696
H        1.0789285182    1.0228012591   -0.1173488204
H        0.0327383924   -0.7418282380   -3.7861484028
H        0.3235595827    0.6387456326   -2.7019703747
H        0.1903064481   -3.9962926806   -0.1554495591
H       -3.0504663334    1.1942316726   -2.2007039107
25   
Generated by ForceBalance from scan.xyz: Frame 6 of 24
C       -1.0879464245   -4.8749360018   -4.4995031663
C       -1.2942050085   -4.0430114531   -3.3565017329
C        0.2391503107   -5.0115814996   -4.8216728074
C       -0.0147408233   -1.2467490872   -1.6645595705
C        0.0409160556   -2.6362598419   -1.6980115104
C       -0.1225733426   -3.5723850782   -2.8116490179
C        0.1832801682   -0.8957179473   -0.2982813319
C       -1.7977343340   -0.0309771908   -2.8726558181
C        0.2216591905    0.4748086195    0.3062519969
C       -0.3120663716   -0.3450658175   -2.8310572670
N        0.3521500159   -1.9886900664    0.4559766282
N        0.2551344671   -3.0261930215   -0.4066000802
O       -2.6533433794   -0.7192660675   -3.3914359400
O       -2.0950540719    1.1230633405   -2.2121453260
S        1.2566299066   -4.1259307267   -3.7376274757
H       -1.8889861397   -5.3433688851   -5.0617261005
H       -2.2670010997   -3.7704037148   -2.9621998691
H        0.6754131801   -5.5814785163   -5.6325660788
H       -0.7186685526    1.0086386358    0.1375715047
H        0.4006776899    0.4007509175    1.3810927075
H        1.0214179217    1.0796327575   -0.1366851067
H       -0.0618855356   -0.8496068288   -3.7666278464
H        0.2561136510    0.5858452949   -2.7603206269
H        0.3597439228   -3.9733025806   -0.0671141483
H       -3.0668529395    1.2165816484   -2.2508741448
25   
Generated by ForceBalance from scan.xyz: Frame 7 of 24
C       -1.0754525608   -4.7861132084   -4.5956432182
C       -1.2692544135   -3.8788531963   -3.5092680736
C        0.2294382564   -5.1922371139   -4.7222335751
C       -0.0405124946   -1.2825202565   -1.6958658723
C        0.0752670196   -2.6694887443   -1.7163071596
C       -0.1133948575   -3.6243547523   -2.8065492069
C        0.1957605643   -0.9057865452   -0.3425109298
C       -1.8900249354   -0.1084584193   -2.8497023424
C        0.2089431730    0.4735978889    0.2428344886
C       -0.4000258815   -0.4041472971   -2.8620980067
N        0.4356612745   -1.9805348614    0.4181603910
N        0.3474586871   -3.0328222863   -0.4275135627
O       -2.7590320069   -0.8328171063   -3.2938116101
O       -2.1743744339    1.0737444727   -2.2376803229
S        1.2461820053   -4.4653622591   -3.5249730045
H       -1.8698678585   -5.1206887587   -5.2546105349
H       -2.2130196428   -3.4054022863   -3.2622941931
H        0.6495909723   -5.8790827504   -5.4463680234
H       -0.7504795781    0.9779150425    0.0921239635
H        0.4178626389    0.4195757913    1.3134508797
H        0.9788679686    1.0955301659   -0.2285027138
H       -0.1821492482   -0.9235667442   -3.7978844374
H        0.1581529392    0.5350178864   -2.8320731228
H        0.4889540075   -3.9709222366   -0.0765661915
H       -3.1481926727    1.1544466588   -2.2381535712
25   
Generated by ForceBalance from scan.xyz: Frame 8 of 24
C       -1.0549443485   -4.7549436671   -4.6558613065
C       -1.2413442480   -3.7677021657   -3.6401351650
C        0.1805283155   -5.3496943812   -4.6021631021
C       -0.0985794837   -1.2888470861   -1.7048485513
C        0.0481214302   -2.6742984023   -1.7347131845
C       -0.1481538487   -3.6357111447   -2.8124791643
C        0.1889520460   -0.9101363272   -0.3619682707
C       -1.9983765085   -0.1354432183   -2.8036213129
C        0.1985068130    0.4687783089    0.2244398622
C       -0.5042423438   -0.4042880688   -2.8509530892
N        0.4888509397   -1.9792300591    0.3843421335
N        0.3895953636   -3.0320217950   -0.4603460692
O       -2.8640187710   -0.8610473604   -3.2540839009
O       -2.2919142025    1.0225439098   -2.1531076146
S        1.1479569273   -4.7021112598   -3.3202999035
H       -1.8087983455   -5.0155351133   -5.3915034494
H       -2.1363557652   -3.1668805690   -3.5194338760
H        0.5766376680   -6.1315630667   -5.2379832855
H       -0.7777237003    0.9518427351    0.1187925899
H        0.4575044892    0.4184099932    1.2842000442
H        0.9323368529    1.1079514636   -0.2803105392
H       -0.2943000528   -0.9035622767   -3.7995588804
H        0.0348325416    0.5459444230   -2.8167686202
H        0.5521161562   -3.9682041560   -0.1133725633
H       -3.2668424430    1.0859037008   -2.1327981876
25   
Generated by ForceBalance from scan.xyz: Frame 9 of 24
C       -1.0157480600   -4.7180249034   -4.7238656787
C       -1.1735532135   -3.6633159593   -3.7735034115
C        0.1150124299   -5.4655736771   -4.5123299088
C       -0.1179092241   -1.2872294238   -1.7101796127
C        0.0384130219   -2.6726883389   -1.7614108733
C       -0.1577160718   -3.6249228291   -2.8423469620
C        0.2226273780   -0.9208034984   -0.3764556605
C       -2.0457217365   -0.1453473215   -2.7819833870
C        0.2465756060    0.4522059034    0.2228859868
C       -0.5472118813   -0.3839292538   -2.8331654129
N        0.5642409824   -1.9938659519    0.3449036724
N        0.4490549507   -3.0383987112   -0.5094492126
O       -2.8925452055   -0.8266860827   -3.3285042743
O       -2.3684973541    0.9253543782   -2.0088098098
S        1.0243376134   -4.8811960863   -3.1584293583
H       -1.7186763803   -4.9183710616   -5.5258323691
H       -2.0053702334   -2.9668482075   -3.7591581532
H        0.4684180822   -6.3226188824   -5.0716179850
H       -0.7351012606    0.9306412904    0.1551711591
H        0.5425862499    0.3925802076    1.2723971905
H        0.9603923463    1.0996528993   -0.2999852501
H       -0.3235006694   -0.8476372162   -3.7963380658
H       -0.0299610069    0.5771321786   -2.7686480631
H        0.6065687552   -3.9782936775   -0.1702227257
H       -3.3445167735    0.9698461410   -1.9948252069
25   
Generated by ForceBalance from scan.xyz: Frame 10 of 24
C       -0.9485927575   -4.6833382348   -4.7513837558
C       -1.0693260776   -3.5637229428   -3.8731045031
C        0.0437635941   -5.5540817953   -4.3796535824
C       -0.1499946650   -1.2537068811   -1.7028578563
C        0.0185843682   -2.6392502899   -1.7586590364
C       -0.1543661962   -3.5911959605   -2.8407439155
C        0.2180700210   -0.8841607534   -0.3777165200
C       -2.0932337294   -0.1552962354   -2.8053455461
C        0.2352417882    0.4890635207    0.2209550835
C       -0.5871412494   -0.3420513872   -2.8160572952
N        0.5937612589   -1.9514949400    0.3339892222
N        0.4794530155   -2.9966102015   -0.5210043851
O       -2.8919977507   -0.7920292650   -3.4665019411
O       -2.4835830591    0.8081467105   -1.9298099333
S        0.8702058162   -5.0100136487   -2.9568834712
H       -1.5826678792   -4.8409674898   -5.6176892676
H       -1.8221841688   -2.7889635439   -3.9722758396
H        0.3434032757   -6.4778907492   -4.8579352593
H       -0.7555887291    0.9510939232    0.1764435559
H        0.5568689594    0.4343406551    1.2631503568
H        0.9269871062    1.1474332008   -0.3178791692
H       -0.3162246974   -0.7645765253   -3.7858824649
H       -0.1098248125    0.6358889394   -2.7083126563
H        0.6356430044   -3.9348158284   -0.1764557693
H       -3.4602368559    0.8222155108   -1.9530683102
25   
Generated by ForceBalance from scan.xyz: Frame 11 of 24
C       -0.8684802652   -4.6811309582   -4.7652162203
C       -0.9200894110   -3.5103799380   -3.9498821855
C       -0.0497327424   -5.6562391347   -4.2567347825
C       -0.1423248159   -1.2556915277   -1.6938479087
C        0.0450753445   -2.6406706168   -1.7512960624
C       -0.1159560001   -3.5971241929   -2.8306256015
C        0.2558707852   -0.8767821580   -0.3808814588
C       -2.1151844200   -0.2277715077   -2.8358470174
C        0.2566292705    0.4974387151    0.2155858419
C       -0.6025638167   -0.3388936399   -2.7932845069
N        0.6743912229   -1.9336126363    0.3214777528
N        0.5616383153   -2.9819931210   -0.5301132305
O       -2.8460280918   -0.7962812604   -3.6252609414
O       -2.5955476782    0.5820486722   -1.8563852646
S        0.6943266646   -5.1524908094   -2.7749291295
H       -1.4293406268   -4.7979782722   -5.6866592291
H       -1.5660284747   -2.6639775087   -4.1543267561
H        0.1702337644   -6.6343555714   -4.6649408831
H       -0.7456572410    0.9361048630    0.1936071685
H        0.6020751165    0.4512081349    1.2505342321
H        0.9222072885    1.1706212342   -0.3378092451
H       -0.2724134138   -0.7015566353   -3.7687333624
H       -0.1877529786    0.6605839789   -2.6338259293
H        0.7370803561   -3.9148899119   -0.1805045449
H       -3.5693117769    0.5574821274   -1.9303971081
25   
Generated by ForceBalance from scan.xyz: Frame 12 of 24
C       -0.7874314206   -4.6728493169   -4.9473616584
C       -0.7129464135   -3.4828715818   -4.1632198137
C       -0.2382954412   -5.7632703372   -4.3246112050
C       -0.0597139573   -1.3380022212   -1.7782210432
C        0.1230669007   -2.7236446444   -1.8674474981
C       -0.0799948880   -3.6698881101   -2.9498637425
C        0.3783019326   -0.9841741322   -0.4722223304
C       -2.0742818902   -0.3811690136   -2.9367823865
C        0.3816849294    0.3759271027    0.1561290330
C       -0.5607587437   -0.3881522397   -2.8304329969
N        0.8221059817   -2.0524400037    0.1964620731
N        0.6795215568   -3.0844241560   -0.6690756187
O       -2.7219562946   -0.8335206312   -3.8617273670
O       -2.6565477684    0.1940661501   -1.8525014070
S        0.3894535653   -5.3516370482   -2.7632071763
H       -1.2439086503   -4.7174046868   -5.9305944694
H       -1.1611614227   -2.5457403007   -4.4685977690
H       -0.1583018602   -6.7802610423   -4.6863130933
H       -0.6275241486    0.7993560539    0.1811878711
H        0.7613796189    0.3095542572    1.1778920309
H        1.0191851493    1.0726990677   -0.4008502546
H       -0.1628851892   -0.6342346527   -3.8166709617
H       -0.2377943529    0.6262674167   -2.5782057647
H        0.9040242059   -4.0179374540   -0.3511130353
H       -3.6213790630    0.1246698202   -1.9873872273
25   
Generated by ForceBalance from scan.xyz: Frame 13 of 24
C       -0.8043132094   -4.5354211663   -4.8899150659
C       -0.5352308431   -3.3357567615   -4.1658069547
C       -0.6719694708   -5.6649794771   -4.1246220243
C       -0.0500432740   -1.2168151795   -1.7187309649
C        0.1362986170   -2.5998858606   -1.8109688338
C       -0.1963372879   -3.5602435353   -2.8467708235
C        0.4499840744   -0.8583294809   -0.4374480248
C       -2.1231045169   -0.5586569744   -3.0446712314
C        0.4757806806    0.5015047842    0.1921426658
C       -0.6614010335   -0.2903522972   -2.7286317090
N        0.9223070754   -1.9243635378    0.2171209156
N        0.7181172877   -2.9630919081   -0.6264854747
O       -2.5928559082   -0.6295995755   -4.1638646688
O       -2.8792404998   -0.6838956704   -1.9253254440
S       -0.2327103272   -5.2787351269   -2.4934267885
H       -1.0869868626   -4.5558595590   -5.9371055373
H       -0.5999677008   -2.3510781755   -4.6111651014
H       -0.8171033487   -6.6979489252   -4.4134379460
H       -0.5360610213    0.9076783477    0.2998630208
H        0.9287389361    0.4392920955    1.1838451240
H        1.0570358571    1.2116989111   -0.4067954364
H       -0.1278781039   -0.2986351343   -3.6819116783
H       -0.6095124716    0.7348301791   -2.3458324280
H        1.0504992670   -3.8806800106   -0.3607500735
H       -3.7931278770   -0.8445034300   -2.2294973202
25   
Generated by ForceBalance from scan.xyz: Frame 14 of 24
C       -0.8151219354   -4.4424257594   -4.8901939845
C       -0.3860962389   -3.2828607684   -4.1773849242
C       -0.9812178849   -5.5359610286   -4.0794415800
C       -0.0359107662   -1.1841078604   -1.6780841334
C        0.1613939949   -2.5610809937   -1.7944851607
C       -0.2312951121   -3.5034631077   -2.8252391934
C        0.5295701468   -0.8345573525   -0.4209041578
C       -2.1057852575   -0.7200196632   -3.1055186223
C        0.5791644829    0.5179319676    0.2233813124
C       -0.7308191603   -0.2675458903   -2.6416231672
N        1.0435979576   -1.9045835471    0.1961796460
N        0.8019533340   -2.9364345373   -0.6457055590
O       -2.5229184471   -0.6082938828   -4.2419099417
O       -2.8564608270   -1.2322547017   -2.0992246322
S       -0.6409137237   -5.1594570859   -2.4221238179
H       -0.9891586832   -4.4628245008   -5.9607954051
H       -0.1897230675   -2.3278736423   -4.6506252323
H       -1.2888414980   -6.5368988954   -4.3538210928
H       -0.4277771775    0.9187104604    0.3863944142
H        1.0792141997    0.4463924707    1.1915819352
H        1.1261623121    1.2384141473   -0.3948619130
H       -0.1467433063   -0.0841402649   -3.5473672989
H       -0.8751719253    0.7088295223   -2.1646752756
H        1.1622379646   -3.8538797250   -0.4180536877
H       -3.7127389267   -1.4780553332   -2.4989892061
25   
Generated by ForceBalance from scan.xyz: Frame 15 of 24
C       -0.7593381651   -4.4323265433   -4.9122067105
C       -0.2332308680   -3.3075050122   -4.2080673104
C       -1.1483785491   -5.4478638797   -4.0760616471
C       -0.0716331347   -1.1581709059   -1.6968381186
C        0.1718113997   -2.5252711840   -1.8187964623
C       -0.2252845715   -3.4783871825   -2.8413467857
C        0.5435991370   -0.7820359372   -0.4704264624
C       -2.1269863530   -0.8525384059   -3.1891512688
C        0.5768852329    0.5744660897    0.1663754872
C       -0.8363157653   -0.2718249214   -2.6368076618
N        1.1283508295   -1.8303594719    0.1214687597
N        0.8860729557   -2.8729405894   -0.7059712785
O       -2.5039930932   -0.7281373706   -4.3379810683
O       -2.8588766523   -1.4972632835   -2.2464040227
S       -0.9040541626   -5.0346939348   -2.4109173784
H       -0.8404229779   -4.4860094015   -5.9926603591
H        0.1316911523   -2.4078629634   -4.6912008419
H       -1.5660020000   -6.4114642240   -4.3391545236
H       -0.4343803804    0.9421802118    0.3749315620
H        1.1239916228    0.5255387652    1.1102642105
H        1.0685635071    1.3098195825   -0.4801664096
H       -0.2432342607    0.0318626044   -3.5036597023
H       -1.1137389878    0.6506710279   -2.1129612469
H        1.2786077334   -3.7802678493   -0.4915047941
H       -3.6596782114   -1.8212243793   -2.7014780866
25   
Generated by ForceBalance from scan.xyz: Frame 16 of 24
C       -0.7147446257   -4.4317320606   -4.8959498057
C       -0.1013799625   -3.3638589390   -4.1735312138
C       -1.3242832440   -5.3448110565   -4.0730257004
C       -0.0978576175   -1.1653579498   -1.6486111653
C        0.1652545316   -2.5261101571   -1.7853742145
C       -0.2430742693   -3.4791156316   -2.8092347801
C        0.5746905083   -0.7776838216   -0.4559339713
C       -2.1451335681   -0.9300469029   -3.1625374388
C        0.6167252229    0.5795392937    0.1786625062
C       -0.9102635361   -0.2869196794   -2.5571239510
N        1.2108934719   -1.8153302312    0.1013253779
N        0.9510404605   -2.8592106317   -0.7174584571
O       -2.4863532901   -0.8195429076   -4.3235481149
O       -2.8771090224   -1.6175380876   -2.2492545933
S       -1.1802111809   -4.9024618420   -2.4046294485
H       -0.7013454672   -4.5188233551   -5.9771676229
H        0.4258593025   -2.5376350130   -4.6383898240
H       -1.8460977674   -6.2521862863   -4.3502664203
H       -0.3894622650    0.9321722153    0.4329886660
H        1.2075706108    0.5402486370    1.0962921650
H        1.0663545583    1.3219248185   -0.4901881647
H       -0.3235214449    0.0977605717   -3.3956073047
H       -1.2597895590    0.5860094086   -1.9927365876
H        1.3515747381   -3.7657408241   -0.5149304862
H       -3.6384545465   -1.9870947935   -2.7361147374
25   
Generated by ForceBalance from scan.xyz: Frame 17 of 24
C        0.2917182406   -4.9094269596   -4.5207347159
C        0.7505453125   -3.9371717561   -3.5804998117
C       -0.9916303261   -5.3240869399   -4.2646476191
C       -0.0582543707   -1.2517227319   -1.5765141593
C       -0.0743647676   -2.6433029655   -1.5445381946
C       -0.1865183346   -3.6273783162   -2.6204938810
C        0.0924091741   -0.8481811943   -0.2181641087
C       -1.7018022751   -0.0341976773   -2.9892831162
C        0.1679669870    0.5450691167    0.3274113986
C       -0.2375943240   -0.3856631234   -2.7939312671
N        0.1704856261   -1.9108787743    0.5914500890
N        0.0607877156   -2.9818403793   -0.2278357444
O       -2.4722034676   -0.6006975735   -3.7366158586
O       -2.0886440186    1.0011476538   -2.1909635243
S       -1.6624047406   -4.5246226429   -2.8858655048
H        0.8871904770   -5.2873351422   -5.3452409969
H        1.7365255099   -3.4838043357   -3.5984200362
H       -1.5806578904   -6.0507077740   -4.8100964890
H       -0.7435517198    1.1062845984    0.1013503550
H        0.3070440744    0.5115091400    1.4101682054
H        1.0075077845    1.0964782924   -0.1118617206
H        0.0854143114   -0.9166291967   -3.6906193599
H        0.3421457024    0.5364365464   -2.6944544420
H        0.1316994921   -3.9154138553    0.1551480446
H       -3.0449941299    1.1229798893   -2.3482474225
25   
Generated by ForceBalance from scan.xyz: Frame 18 of 24
C        0.3739964110   -5.0719317658   -4.4105164656
C        0.8472360365   -4.1334291912   -3.4437592578
C       -0.9870655818   -5.2449970927   -4.3500698628
C       -0.0865741033   -1.2308768147   -1.5992925674
C       -0.0346463348   -2.6213253610   -1.5858038933
C       -0.1577080707   -3.6046496031   -2.6641894282
C        0.0995765696   -0.8358569053   -0.2428328323
C       -1.8051308420   -0.0322660437   -2.9399085896
C        0.1425263688    0.5532318836    0.3168113853
C       -0.3294529582   -0.3629812001   -2.8040825224
N        0.2550232976   -1.9034674123    0.5492725760
N        0.1620425807   -2.9684091474   -0.2791674586
O       -2.5991743663   -0.6174695210   -3.6472041812
O       -2.1717264216    1.0068142504   -2.1370535380
S       -1.7084757157   -4.2621263553   -3.1254285048
H        1.0115780711   -5.5923397631   -5.1175607458
H        1.8876833642   -3.8491229635   -3.3222614198
H       -1.6059427824   -5.8884063781   -4.9629869270
H       -0.7926640604    1.0859465535    0.1210844131
H        0.3119572711    0.5127082180    1.3949998389
H        0.9510040796    1.1376372720   -0.1379949309
H       -0.0333146026   -0.8891526970   -3.7133067337
H        0.2401283039    0.5675878100   -2.7262607579
H        0.2697205009   -3.9038758070    0.0903272436
H       -3.1352577453    1.1150856586   -2.2558882186
25   
Generated by ForceBalance from scan.xyz: Frame 19 of 24
C        0.4172888364   -5.1877792316   -4.3009150929
C        0.9049699510   -4.2912912841   -3.3028375811
C       -0.9417612624   -5.0876289389   -4.4740584682
C       -0.0410272516   -1.1655567934   -1.6057082088
C        0.0518342948   -2.5536687109   -1.6459483201
C       -0.0855882678   -3.5146572122   -2.7404103529
C        0.1737693546   -0.8141962196   -0.2416507673
C       -1.8114061456    0.1033348270   -2.7930059058
C        0.2034569622    0.5551418209    0.3659198311
C       -0.3356656602   -0.2553508635   -2.7666074614
N        0.3788232725   -1.9048188722    0.5066478078
N        0.2913629935   -2.9412066502   -0.3573677540
O       -2.6882857199   -0.5512804058   -3.3187378101
O       -2.0709347398    1.2557571509   -2.1135355363
S       -1.6426438955   -3.8998472989   -3.4323913240
H        1.0441517413   -5.8678515295   -4.8682240636
H        1.9475081205   -4.2049638408   -3.0129325814
H       -1.5663706300   -5.6320908990   -5.1714268792
H       -0.7545321955    1.0677996401    0.2367081112
H        0.4272465082    0.4818183044    1.4323747055
H        0.9699093830    1.1803166935   -0.1066876766
H       -0.1088237313   -0.7647592872   -3.7055054105
H        0.2589508440    0.6596898180   -2.7012499214
H        0.4095356790   -3.8883500872   -0.0224571500
H       -3.0397569816    1.3780465265   -2.1459341441
25   
Generated by ForceBalance from scan.xyz: Frame 20 of 24
C        0.4266929150   -5.3390812972   -4.2133860050
C        0.8829313482   -4.4580122710   -3.1880542108
C       -0.8676322538   -5.0762379066   -4.5903307044
C       -0.1099709077   -1.1681030132   -1.6908719284
C        0.0481074229   -2.5516228068   -1.7314263656
C       -0.0657976036   -3.5310813951   -2.8070151948
C        0.1424938827   -0.8013669847   -0.3374042448
C       -1.9664629549    0.0421063652   -2.8078288415
C        0.1349361503    0.5713486233    0.2632076338
C       -0.4796570608   -0.2681614449   -2.8379447173
N        0.4285455848   -1.8767009782    0.4059266919
N        0.3619426056   -2.9196159270   -0.4526763577
O       -2.8431656676   -0.6575515830   -3.2727105979
O       -2.2350328503    1.2067344317   -2.1542483297
S       -1.5489598600   -3.7569852149   -3.7037401660
H        1.0326756914   -6.1213318422   -4.6586113864
H        1.8801061210   -4.4825122295   -2.7594445374
H       -1.4536961094   -5.5736093474   -5.3532275849
H       -0.8417516725    1.0505623026    0.1470424130
H        0.3781944039    0.5110650652    1.3261837356
H        0.8724050070    1.2199128600   -0.2240111918
H       -0.2718667052   -0.7668641469   -3.7871172888
H        0.0863562412    0.6660441595   -2.7940354567
H        0.5075431171   -3.8613555143   -0.1136671138
H       -3.2079468421    1.2969366996   -2.1478094786
25   
Generated by ForceBalance from scan.xyz: Frame 21 of 24
C        0.3845258109   -5.3889807727   -4.1491857486
C        0.8032141723   -4.5600879849   -3.0668071869
C       -0.7973448797   -4.9653005576   -4.7052401882
C       -0.1255212024   -1.1484187295   -1.6996700358
C        0.0471562907   -2.5318163785   -1.7475490235
C       -0.0642518194   -3.5151654338   -2.8149111295
C        0.1788749020   -0.7793071143   -0.3576089000
C       -2.0286071469    0.0403617162   -2.7624148767
C        0.1779744332    0.5937166969    0.2422473562
C       -0.5364170886   -0.2374679195   -2.8238986294
N        0.5107588728   -1.8495734284    0.3727936287
N        0.4271625913   -2.8934135373   -0.4843544963
O       -2.8983925320   -0.6677447862   -3.2277554930
O       -2.3100046315    1.1845939201   -2.0795115348
S       -1.4246197594   -3.5612485323   -3.9121438484
H        0.9404895601   -6.2491153769   -4.5075811961
H        1.7268573032   -4.7015329752   -2.5138956512
H       -1.3323827213   -5.3942284199   -5.5433510912
H       -0.8084703604    1.0605828565    0.1644799223
H        0.4636906266    0.5372560617    1.2947896856
H        0.8879578206    1.2509684271   -0.2734347466
H       -0.3330421012   -0.7075650380   -3.7885368220
H        0.0092132732    0.7080465890   -2.7677645386
H        0.5729791076   -3.8343206657   -0.1437185623
H       -3.2843391566    1.2536108884   -2.0534636648
25   
Generated by ForceBalance from scan.xyz: Frame 22 of 24
C        0.3315826945   -5.5042796884   -4.0416412815
C        0.7025948171   -4.7150425042   -2.9145073634
C       -0.7064571054   -4.9507227896   -4.7497080957
C       -0.1219738009   -1.1890702124   -1.6819582064
C        0.0586208840   -2.5741769656   -1.7235764376
C       -0.0622613307   -3.5717850708   -2.7735952807
C        0.2437841073   -0.8035216929   -0.3598185314
C       -2.0774851838   -0.0629504302   -2.7319429123
C        0.2605459634    0.5759484150    0.2245967420
C       -0.5753913027   -0.2798082602   -2.7921675730
N        0.6206101018   -1.8614337931    0.3651821849
N        0.5128497887   -2.9150700743   -0.4784448804
O       -2.9110208966   -0.7048091582   -3.3385530334
O       -2.4139504781    0.9400316050   -1.8743378166
S       -1.2585428709   -3.4707282767   -4.0443674109
H        0.8210818390   -6.4307739827   -4.3232156118
H        1.5300294259   -4.9564541893   -2.2543259294
H       -1.1792743048   -5.3268500535   -5.6482390898
H       -0.7320890846    1.0338044682    0.1856345560
H        0.5937998994    0.5321640666    1.2636668495
H        0.9436126940    1.2314957560   -0.3285195005
H       -0.3472733746   -0.7121217546   -3.7682743331
H       -0.0737924150    0.6883502454   -2.7091695579
H        0.6603769384   -3.8503279313   -0.1241519623
H       -3.3902952407    0.9727907253   -1.8624538664
25   
Generated by ForceBalance from scan.xyz: Frame 23 of 24
C        0.2699655522   -5.5187731056   -3.9778943658
C        0.5701509476   -4.7618938672   -2.8089585021
C       -0.5639442305   -4.8475846313   -4.8371462445
C       -0.1146626439   -1.1267591391   -1.7179771258
C        0.0805820470   -2.5119024531   -1.7486288515
C       -0.0484109165   -3.5247645405   -2.7823181867
C        0.2813632416   -0.7206846164   -0.4110411717
C       -2.1153400827   -0.0710283965   -2.7759300096
C        0.2872250675    0.6653757349    0.1571765124
C       -0.6045896280   -0.2216265667   -2.8160314713
N        0.6930104532   -1.7631196652    0.3155775456
N        0.5803054097   -2.8282187828   -0.5133892106
O       -2.9066681564   -0.6529779856   -3.4896708871
O       -2.5128909399    0.7981421378   -1.8057359718
S       -1.0115589043   -3.2936300283   -4.2235161091
H        0.6627012426   -6.5103964148   -4.1769927723
H        1.2494025924   -5.1061374760   -2.0352018671
H       -0.9501789391   -5.1782584378   -5.7929648082
H       -0.7128435521    1.1074943287    0.1270599592
H        0.6348142285    0.6380065470    1.1920968720
H        0.9544479476    1.3244202003   -0.4111596438
H       -0.3411226498   -0.6096069456   -3.8015093792
H       -0.1534868099    0.7682894481   -2.7013521372
H        0.7541078061   -3.7535089348   -0.1466374656
H       -3.4895800909    0.7972715993   -1.8218799449
25   
Generated by ForceBalance from scan.xyz: Frame 24 of 24
C       -0.0516447753   -5.5564898364   -3.8565875978
C        0.2716855944   -4.7973689990   -2.6950355577
C       -0.6294649793   -4.7942019434   -4.8403416534
C       -0.0962444373   -1.0387038694   -1.7977531092
C        0.1480848970   -2.4163602019   -1.8128005747
C       -0.0644025025   -3.4598964839   -2.8006841530
C        0.3530658890   -0.5923475097   -0.5236886513
C       -2.2200440653   -0.1583028233   -2.8839757449
C        0.3088138539    0.8002828333    0.0259606193
C       -0.6999360678   -0.1764510490   -2.8691396592
N        0.8490615913   -1.6013810491    0.1972061489
N        0.7210570988   -2.6890629221   -0.5991937953
O       -2.9169848801   -0.3387469203   -3.8618218251
O       -2.7399723478    0.1201659471   -1.6582420544
S       -0.7934678379   -3.1411661547   -4.3581899463
H        0.1350868123   -6.6204806933   -3.9571438539
H        0.7409745008   -5.2328507766   -1.8182897277
H       -0.9774504145   -5.1055092900   -5.8169092525
H       -0.7201482585    1.1716976173    0.0673475101
H        0.7280441138    0.8130519484    1.0342837703
H        0.8880393986    1.4943958639   -0.5943618325
H       -0.3760144116   -0.4631213168   -3.8707647259
H       -0.3789857510    0.8600149784   -2.7128286740
H        1.0274105390   -3.5859850435   -0.2508831332
H       -3.7103252340    0.1196048554   -1.7676959932
