40

C     -1.04579   -7.43493   -1.90246
C     -0.59612   -7.41024   -0.58010
C     -0.11628   -7.46698   -2.94924
C      0.77636   -7.41131   -0.30998
C      1.25141   -7.46819   -2.67535
C      1.70893   -7.43625   -1.35152
C      4.04397   -8.43999   -1.74846
C      3.77221   -5.94741   -1.18670
C      0.18418   -0.58633   -1.05696
C      1.25377   -0.40547   -2.14320
C     -0.22108   -2.05999   -0.91512
C      2.47228   -1.30429   -1.88804
C      0.99632   -2.95958   -0.66192
C      2.06414   -2.78161   -1.75448
C      3.29506   -3.63580   -1.49630
C      3.18518   -7.35479   -1.03589
O      3.54790   -9.41641   -2.25861
O      4.97021   -5.70665   -1.05736
O      5.37617   -8.26500   -1.69294
O      2.85375   -5.02338   -1.42475
H     -2.11119   -7.43646   -2.11775
H     -1.30903   -7.39256    0.24010
H     -0.45959   -7.49657   -3.98008
H      1.12011   -7.38766    0.72234
H      1.96448   -7.50624   -3.49385
H     -0.69348    0.02964   -1.28500
H      0.58016   -0.22616   -0.09719
H      0.82185   -0.65455   -3.12206
H      1.56960    0.64267   -2.19745
H     -0.94707   -2.17898   -0.10264
H     -0.72502   -2.38841   -1.83440
H      3.20527   -1.18466   -2.69563
H      2.96926   -0.98319   -0.96140
H      1.44042   -2.70501    0.31200
H      0.68980   -4.00884   -0.60855
H      1.63154   -3.10637   -2.71128
H      3.78148   -3.38246   -0.54922
H      4.03471   -3.55050   -2.29719
H      3.32866   -7.57551    0.03122
H      5.57535   -7.36564   -1.33492
