46   

C       -4.9398947784   -4.3107583327   -2.6842629252
C       -5.6835974257   -3.1492237034   -2.3965490573
C       -3.6472837062   -4.4745175702   -2.1575001444
C       -0.7753705954   -4.2041199541   -0.5897268155
C       -5.1382216004   -2.1398395096   -1.5848927204
C        0.3246903078   -3.8094001388    0.1945549118
C       -0.7772619347   -1.7157351528    0.7282035405
C       -3.1321322432   -3.4579673692   -1.3525838142
C       -1.8649398491   -3.3381063426   -0.6708059952
C       -3.8537488274   -2.3085195482   -1.0721937342
C       -1.8709602684   -2.1190642204   -0.0234081569
C        0.3274417193   -2.5701716232    0.8695990217
C       -0.1084061260   -3.1251394207    4.9941236752
C        0.2579546895   -2.4908658047    3.8338772789
C       -1.3307651384   -4.0965065751    5.1166006759
C        0.2236478537   -3.4707309949    7.4023715736
C       -1.0815787357   -1.5129944665    6.5995396755
C       -1.1561262034   -4.1538223763    7.5604011696
C       -2.3700995343   -2.3607518578    6.4438863345
C        0.1622412910   -2.3892481355    6.3001086597
C        1.4290192047   -2.8409161203    2.9444572364
N       -3.0872251210   -1.4670809535   -0.2547318251
N       -2.0017108110   -3.7962362071    6.4016263546
O        1.3864658166   -2.1891577500    1.6612652024
F       -0.3282832224   -1.2888985500    3.6192254322
H       -5.3680049009   -5.0817438388   -3.3144030451
H       -6.6817488572   -3.0311546645   -2.8031608913
H       -3.0657183454   -5.3630069679   -2.3695481898
H       -0.7826250912   -5.1535900005   -1.1109981810
H       -5.7025132571   -1.2441324547   -1.3582456600
H        1.1861119003   -4.4589963891    0.2819081468
H       -0.7843809092   -0.7535696003    1.2214276118
H       -2.0191328955   -3.9373252602    4.2792174260
H       -0.9941462201   -5.1380817860    5.0900415518
H        0.5279274568   -3.0411761799    8.3618575333
H        0.9731365185   -4.2151656236    7.1170654385
H       -1.1380758796   -0.6421232626    5.9399521536
H       -1.0079295906   -1.1373056266    7.6247343749
H       -1.0350926191   -5.2386035222    7.6446073289
H       -1.6425529203   -3.7999256767    8.4760535607
H       -3.0648922365   -2.1494538528    7.2632619542
H       -2.8740648925   -2.0932216139    5.5079884858
H        1.0844393654   -1.7997922904    6.2639851778
H        1.4528790887   -3.9255521881    2.8026816117
H        2.3537115662   -2.5593711472    3.4561651910
H       -3.3596675719   -0.5643437057    0.1158069706
46   

C       -5.0732642158   -4.2355048447   -2.3746834031
C       -5.7857513590   -3.0653543755   -2.0459617607
C       -3.7645126104   -4.4260660509   -1.8999095908
C       -0.8244994580   -4.2129372814   -0.4625693270
C       -5.1937335190   -2.0752377724   -1.2430436737
C        0.3195926900   -3.8387879773    0.2652326530
C       -0.7345077743   -1.7462873805    0.8957356960
C       -3.2027199612   -3.4277676717   -1.1034208097
C       -1.9065740849   -3.3343964506   -0.4753423792
C       -3.8944001361   -2.2714837204   -0.7798650889
C       -1.8678476535   -2.1253176488    0.1905338733
C        0.3701935816   -2.6099420143    0.9553442266
C       -0.0444380143   -3.0815836873    4.9806327521
C        0.4110045791   -2.4188457199    3.8819365255
C       -1.1677434850   -4.1601487085    4.9258018603
C       -0.0492269110   -3.4148598316    7.4142734271
C       -1.4055920543   -1.5845771279    6.4175340744
C       -1.3647620514   -4.2283009459    7.3669970588
C       -2.5653563871   -2.5513825697    6.0702787601
C       -0.0511244625   -2.3326146751    6.3103762234
C        1.5446932858   -2.8426310824    2.9861214424
N       -3.0832637256   -1.4534212206    0.0185916905
N       -2.0546726320   -3.9428614840    6.0910456759
O        1.4815929472   -2.2486261280    1.6781926522
F        0.1071181157   -1.0989516576    3.8098127364
H       -5.5374707946   -4.9920109895   -2.9968102207
H       -6.7959078914   -2.9257693319   -2.4142533706
H       -3.2057753684   -5.3207393351   -2.1450121704
H       -0.8680717888   -5.1541236726   -0.9970117710
H       -5.7337516558   -1.1728373619   -0.9860062016
H        1.1799826502   -4.4950755486    0.2954681392
H       -0.7049312628   -0.7937126679    1.4066726928
H       -1.7337436820   -4.0619047822    3.9926666610
H       -0.7318921274   -5.1641602910    4.9557286058
H        0.0668435974   -2.9690199623    8.4069706876
H        0.8025496469   -4.0809911767    7.2460950834
H       -1.4494592275   -0.7143398445    5.7563675177
H       -1.5229445047   -1.2179107316    7.4419602532
H       -1.1546281521   -5.2972102218    7.4754323799
H       -2.0156659769   -3.9296516098    8.1961015310
H       -3.3942380218   -2.4174273376    6.7729222523
H       -2.9437576492   -2.3240964930    5.0669915241
H        0.8049970901   -1.6573594419    6.4136037815
H        1.5400345691   -3.9330511556    2.8951985325
H        2.4890191809   -2.5582654100    3.4590827298
H       -3.3237230513   -0.5474694374    0.4031474481
46   

C       -5.2508505742   -4.2848349741   -1.5870024436
C       -5.8910771227   -3.0778511843   -1.2431593510
C       -3.9024879062   -4.4925152053   -1.2519564008
C       -0.8202237222   -4.3078161025   -0.1623299494
C       -5.1867848160   -2.0679271587   -0.5649720669
C        0.4051890555   -3.9418992179    0.4207322082
C       -0.5105686902   -1.7848550034    1.0532263172
C       -3.2292946863   -3.4741236865   -0.5772443347
C       -1.8701154878   -3.3933564297   -0.1019882488
C       -3.8490376618   -2.2817774138   -0.2396676053
C       -1.7240064692   -2.1557518444    0.4929018559
C        0.5651780385   -2.6873044892    1.0406993636
C        0.0453360488   -3.0035219940    4.7951685011
C        0.6983427582   -2.2921703824    3.8500364341
C       -0.9530312085   -4.1334364092    4.4228087182
C       -0.5887760478   -3.4304359606    7.1339086131
C       -1.7110033851   -1.6199843958    5.8431109059
C       -1.8046822183   -4.2900785923    6.7154748253
C       -2.6860001442   -2.6226089390    5.1733323280
C       -0.3453118408   -2.3096903578    6.0975399341
C        1.8570660085   -2.7497179995    3.0145357284
N       -2.9314800818   -1.4523390615    0.4201479050
N       -2.1331119410   -3.9921008077    5.3056231194
O        1.7544643804   -2.3478662500    1.6368973376
F        0.6124215090   -0.9403662439    3.9401814195
H       -5.8013534121   -5.0569689419   -2.1119021420
H       -6.9325844577   -2.9255515738   -1.5028921293
H       -3.3978753339   -5.4155254440   -1.5092414191
H       -0.9493801899   -5.2709330099   -0.6408397705
H       -5.6710700147   -1.1375125043   -0.2971939995
H        1.2439539114   -4.6259929961    0.3966279430
H       -0.3963563727   -0.8126572468    1.5134311347
H       -1.2523172068   -4.0374017991    3.3726519877
H       -0.4857226934   -5.1145695127    4.5560727130
H       -0.7615180817   -3.0176780408    8.1326204793
H        0.3067525714   -4.0575437026    7.1821910633
H       -1.6102612159   -0.7351017186    5.2077242596
H       -2.1203000244   -1.2881015275    6.8022387781
H       -1.5853617149   -5.3531890538    6.8574105773
H       -2.6688300315   -4.0401797240    7.3408118439
H       -3.6799255451   -2.5455002591    5.6258259714
H       -2.7884114462   -2.3799063775    4.1090489314
H        0.4194050902   -1.6079136486    6.4473042811
H        1.9433437254   -3.8386890090    3.0765020263
H        2.7745019670   -2.3245431738    3.4318670243
H       -3.1014137280   -0.5189582855    0.7755992529
46   

C       -5.3154482748   -4.1707526047   -1.1885025832
C       -5.9023788663   -2.9274428652   -0.8810202238
C       -3.9629387987   -4.4083562794   -0.8929790349
C       -0.8386290150   -4.2796954137    0.0714092218
C       -5.1405112245   -1.9114129070   -0.2781648463
C        0.4179612792   -3.9326210537    0.5958426720
C       -0.4016154331   -1.7188444130    1.1631123809
C       -3.2319614150   -3.3828046130   -0.2936091916
C       -1.8542179364   -3.3271782112    0.1274660357
C       -3.7992323757   -2.1556124873    0.0092584700
C       -1.6454902775   -2.0700628107    0.6596346985
C        0.6407029776   -2.6599493260    1.1562452219
C        0.0723572129   -2.9022612551    4.7863202172
C        0.8234201134   -2.1882043054    3.9294956839
C       -0.7448597660   -4.1296113697    4.3217175223
C       -0.8688826700   -3.3097853104    7.0234355093
C       -1.9180367024   -1.6490303558    5.4830952115
C       -1.9242718340   -4.2917125187    6.4646192710
C       -2.6979585739   -2.7621057585    4.7335611116
C       -0.5623134517   -2.2062188610    5.9859285693
C        1.9716149692   -2.6812360186    3.1053909848
N       -2.8308931971   -1.3290081503    0.5963905395
N       -2.0544973242   -4.0700389971    5.0093567603
O        1.8559356407   -2.3441563275    1.7109216013
F        0.8078340165   -0.8386352644    4.0778006892
H       -5.9101655597   -4.9478691997   -1.6545436009
H       -6.9473625134   -2.7520406965   -1.1104082303
H       -3.4987609986   -5.3594877819   -1.1226042557
H       -1.0175773854   -5.2579304300   -0.3578919003
H       -5.5839242677   -0.9533101711   -0.0388024560
H        1.2311892064   -4.6470463441    0.5761933724
H       -0.2382858243   -0.7342277253    1.5804966266
H       -0.8899859625   -4.0969782786    3.2363018393
H       -0.2181257608   -5.0567099640    4.5701767134
H       -1.2303512429   -2.8822893925    7.9637296732
H        0.0587914385   -3.8496535650    7.2371906931
H       -1.7775011337   -0.7939440661    4.8147439501
H       -2.4982391319   -1.3041175924    6.3444676059
H       -1.6362457199   -5.3245235527    6.6857872152
H       -2.8933779974   -4.1053527282    6.9402491874
H       -3.7488848175   -2.7611467360    5.0403819330
H       -2.6697562863   -2.5688067681    3.6545445944
H        0.0779105913   -1.4293099537    6.4172656583
H        2.0633113871   -3.7657752051    3.2166967531
H        2.8923257146   -2.2350093067    3.4925747154
H       -2.9553123993   -0.3731624166    0.9084545112
46   

C       -5.3340793430   -4.0750185462   -0.9886808594
C       -5.8837810810   -2.8144025594   -0.6829311628
C       -3.9793902337   -4.3394659287   -0.7280224547
C       -0.8278879134   -4.2708271477    0.1496345379
C       -5.0824298927   -1.8080672110   -0.1160276446
C        0.4477290887   -3.9494744122    0.6438677808
C       -0.3060256488   -1.7109867085    1.2059678028
C       -3.2086477284   -3.3227646575   -0.1644388325
C       -1.8191649705   -3.2938879071    0.2190178101
C       -3.7394651967   -2.0791672052    0.1375447216
C       -1.5680690199   -2.0362616455    0.7311806438
C        0.7118837928   -2.6786501192    1.1906138805
C        0.0908095355   -2.8309921465    4.7378695807
C        0.9350982890   -2.1521042421    3.9520650036
C       -0.5806171267   -4.1446485638    4.2934376684
C       -1.0080934880   -3.1502833192    6.9144840323
C       -2.0354258864   -1.7019706622    5.1539876884
C       -1.9120744977   -4.2686467714    6.3480698552
C       -2.6720957618   -2.9346866947    4.4575547878
C       -0.6976450773   -2.1038948484    5.8211590878
C        2.0568476512   -2.7030735235    3.1317737339
N       -2.7371109733   -1.2681536840    0.6882380940
N       -1.9416576839   -4.1566883746    4.8748408332
O        1.9416031850   -2.3930719326    1.7301160029
F        0.9890874759   -0.8059645791    4.1193799020
H       -5.9592671940   -4.8447944127   -1.4262070958
H       -6.9306277616   -2.6182701254   -0.8855767589
H       -3.5437331072   -5.3043734567   -0.9561723278
H       -1.0400690850   -5.2490931820   -0.2642299570
H       -5.4973298623   -0.8369457143    0.1220317366
H        1.2421589718   -4.6845028735    0.6163014008
H       -0.1109020448   -0.7274564211    1.6121772235
H       -0.6417352654   -4.1887989149    3.2014278057
H       -0.0029431944   -5.0068422753    4.6421517465
H       -1.4963886683   -2.6881781390    7.7779453803
H       -0.0626742554   -3.5817663209    7.2577746880
H       -1.8840767786   -0.9084021190    4.4154653303
H       -2.7137955070   -1.3185039448    5.9222608915
H       -1.5427151595   -5.2497918646    6.6637952573
H       -2.9304600834   -4.1544216712    6.7350886002
H       -3.7355490632   -3.0034929313    4.7085367289
H       -2.5981129988   -2.8232945730    3.3695753938
H       -0.1651887688   -1.2454365344    6.2438520923
H        2.1135929382   -3.7873334842    3.2660122276
H        2.9957974175   -2.2808879500    3.5017746077
H       -2.8306867545   -0.3053357767    0.9896796407
46   

C       -5.3436702351   -4.0084942330   -0.9206771661
C       -5.8818442996   -2.7467669479   -0.5995040451
C       -3.9887600351   -4.2846788476   -0.6736129007
C       -0.8310461803   -4.2476295840    0.1830598705
C       -5.0687906709   -1.7512315548   -0.0301502646
C        0.4484041437   -3.9430198013    0.6781028107
C       -0.2852389980   -1.7054852295    1.2701520295
C       -3.2061358374   -3.2783581669   -0.1076094209
C       -1.8139626243   -3.2634803152    0.2670283179
C       -3.7257962005   -2.0340569055    0.2103385036
C       -1.5505585693   -2.0135861243    0.7920906033
C        0.7238096147   -2.6821419285    1.2425063986
C        0.0198144401   -2.7816915830    4.7021298551
C        0.9684981790   -2.1428781310    4.0141347351
C       -0.5457466590   -4.1485617378    4.2871496063
C       -1.1902556875   -3.0200598061    6.8248164828
C       -2.1892672526   -1.7659215948    4.9037620793
C       -1.9610222466   -4.2467420140    6.2863944856
C       -2.7247898384   -3.0857510482    4.2877893651
C       -0.8777559069   -2.0322825468    5.6795249209
C        2.0605530756   -2.7410842757    3.1884881942
N       -2.7138791078   -1.2360272051    0.7626173341
N       -1.9284546988   -4.2230906030    4.8089942477
O        1.9548341430   -2.4163617720    1.7891931921
F        1.1058414542   -0.8103181499    4.2310198149
H       -5.9780048815   -4.7700815130   -1.3594479029
H       -6.9289144095   -2.5415485301   -0.7918871117
H       -3.5621561875   -5.2508735360   -0.9132461009
H       -1.0528137018   -5.2195050412   -0.2407969164
H       -5.4750577770   -0.7795045532    0.2200579606
H        1.2360429851   -4.6849037865    0.6406394149
H       -0.0812748753   -0.7296532906    1.6904379008
H       -0.5536600533   -4.2433485725    3.1973380701
H        0.0664151283   -4.9565512997    4.7007837168
H       -1.7764840215   -2.5366515720    7.6123394469
H       -0.2446605503   -3.3481149474    7.2676744594
H       -2.0250902787   -1.0359165028    4.1048574907
H       -2.9330031662   -1.3497356458    5.5900684270
H       -1.5193579706   -5.1700515497    6.6753846246
H       -3.0025972593   -4.2073782245    6.6230882894
H       -3.7865898015   -3.2086958478    4.5247929800
H       -2.6352105928   -3.0483775914    3.1965193138
H       -0.4325062319   -1.1119215784    6.0708566537
H        2.0698159270   -3.8275681274    3.3153917839
H        3.0191723392   -2.3649739078    3.5577950488
H       -2.7981456953   -0.2751900836    1.0731091010
46   

C       -5.3046998191   -3.9153232443   -0.9111449316
C       -5.8511666808   -2.6653032356   -0.5597353345
C       -3.9496377182   -4.1909566048   -0.6641389463
C       -0.7961182453   -4.1594099666    0.2076083325
C       -5.0464612229   -1.6812376637    0.0406182159
C        0.4796551953   -3.8612229116    0.7157834733
C       -0.2701374007   -1.6469369970    1.3718083839
C       -3.1752634270   -3.1959698379   -0.0673372625
C       -1.7849982741   -3.1836432063    0.3148201661
C       -3.7033434515   -1.9635765260    0.2813385980
C       -1.5312478275   -1.9476228871    0.8767769586
C        0.7451000344   -2.6154642317    1.3178649399
C       -0.0028377117   -2.7530021831    4.6956960894
C        1.0371959478   -2.1471676133    4.1228195099
C       -0.5016654952   -4.1467393051    4.2982092098
C       -1.2642588644   -2.9508395316    6.7877781507
C       -2.2598089155   -1.8279035021    4.7864321848
C       -1.9390138787   -4.2461410942    6.2809172437
C       -2.7336074101   -3.1972406910    4.2332485893
C       -0.9623736810   -1.9999855140    5.6093390034
C        2.0892857727   -2.7516442303    3.2521537754
N       -2.6988197152   -1.1757684467    0.8612062320
N       -1.8865393600   -4.2718694177    4.8037477855
O        1.9731052474   -2.3553733095    1.8730395264
F        1.2599860916   -0.8479205438    4.4431083560
H       -5.9327524158   -4.6681984327   -1.3734333211
H       -6.8981899514   -2.4602978841   -0.7527532818
H       -3.5168692975   -5.1483176476   -0.9271016064
H       -1.0104175638   -5.1201314065   -0.2446456413
H       -5.4592851542   -0.7185786890    0.3140945539
H        1.2720100986   -4.5968320929    0.6589708526
H       -0.0731221049   -0.6837160924    1.8234032553
H       -0.4906527588   -4.2614458115    3.2106009824
H        0.1384921767   -4.9198179565    4.7355256606
H       -1.9109329350   -2.4657266807    7.5253610113
H       -0.3218858613   -3.2008834293    7.2851070856
H       -2.0949561833   -1.1394531889    3.9518782457
H       -3.0379549158   -1.3987990071    5.4249179524
H       -1.4377250147   -5.1221831348    6.7054542809
H       -2.9848340929   -4.2708611730    6.6054562603
H       -3.7875808262   -3.3586791936    4.4818656638
H       -2.6501619972   -3.2053470440    3.1411359294
H       -0.5758524606   -1.0417887000    5.9702801624
H        2.0567143274   -3.8423520253    3.3279422219
H        3.0689673554   -2.4334229349    3.6206594161
H       -2.7897437325   -0.2233612998    1.1949389087
46   

C       -5.2925543042   -3.9060211131   -0.8973867070
C       -5.8466886598   -2.6598843109   -0.5442842479
C       -3.9376057102   -4.1764135116   -0.6438186106
C       -0.7879833401   -4.1320827391    0.2415424392
C       -5.0498854702   -1.6746285261    0.0646055614
C        0.4851607003   -3.8282680734    0.7529377819
C       -0.2794773872   -1.6227225961    1.4209304381
C       -3.1710747770   -3.1802477587   -0.0386934234
C       -1.7825986341   -3.1624470121    0.3502207083
C       -3.7068560822   -1.9518577182    0.3120385235
C       -1.5375584079   -1.9277287045    0.9192674328
C        0.7421154044   -2.5833106067    1.3610970260
C        0.0000738731   -2.7347263992    4.6686878108
C        1.1155808095   -2.1791700369    4.1964196801
C       -0.4690687953   -4.1504685371    4.3220834429
C       -1.2605392672   -2.8613131157    6.7618728223
C       -2.2834707248   -1.8591188453    4.7138475451
C       -1.8945309511   -4.1992403331    6.3149529665
C       -2.7252292809   -3.2629965361    4.2266699879
C       -0.9814315763   -1.9596091155    5.5399269691
C        2.1185481442   -2.7777118385    3.2653378499
N       -2.7091452178   -1.1617227059    0.9004438965
N       -1.8481296527   -4.2887318598    4.8396336351
O        1.9691795011   -2.3124667663    1.9122267463
F        1.4242469479   -0.9286305073    4.6209932896
H       -5.9145972331   -4.6598155232   -1.3663061885
H       -6.8934763315   -2.4587716159   -0.7427338153
H       -3.4990953123   -5.1307014956   -0.9084424674
H       -0.9955474999   -5.0917331502   -0.2161440495
H       -5.4686987301   -0.7148732087    0.3392122726
H        1.2823384110   -4.5582657277    0.6917583926
H       -0.0882639788   -0.6616243849    1.8794070221
H       -0.4613846374   -4.3010800475    3.2388341015
H        0.1905898016   -4.8939585545    4.7812266428
H       -1.9250579756   -2.3604573774    7.4725667539
H       -0.3140753228   -3.0593466286    7.2747348281
H       -2.1367667518   -1.2059184446    3.8487203360
H       -3.0710020089   -1.4194383973    5.3333729535
H       -1.3621181736   -5.0389617100    6.7736790577
H       -2.9371612016   -4.2446030636    6.6473535401
H       -3.7731639521   -3.4393842445    4.4902179448
H       -2.6483267168   -3.3181419839    3.1354407961
H       -0.6226905752   -0.9742180819    5.8526514117
H        2.0519677311   -3.8691246344    3.2933465167
H        3.1201550686   -2.5089941102    3.6138405093
H       -2.8063938774   -0.2105232755    1.2358242335
46   

C       -5.2813319086   -3.9127710897   -0.9100945351
C       -5.8488734063   -2.6705396713   -0.5646626280
C       -3.9274772749   -4.1729024049   -0.6402114828
C       -0.7883702762   -4.1036355077    0.2811855648
C       -5.0666183895   -1.6789106689    0.0526570990
C        0.4772127640   -3.7888568479    0.8046889214
C       -0.3118723152   -1.5895709222    1.4641926748
C       -3.1754918556   -3.1705874573   -0.0268920165
C       -1.7916581307   -3.1418274221    0.3781343300
C       -3.7245135095   -1.9459277676    0.3160936972
C       -1.5623416058   -1.9047467644    0.9487025486
C        0.7182279311   -2.5407383844    1.4139608888
C       -0.0201056039   -2.7347197210    4.6488055514
C        1.1621831207   -2.2359145174    4.2843712894
C       -0.4793174351   -4.1647185064    4.3503376634
C       -1.2741278224   -2.7903534995    6.7444854461
C       -2.3196975653   -1.8811633483    4.6684019983
C       -1.8935563886   -4.1525327804    6.3516798072
C       -2.7445056015   -3.3061677389    4.2322192663
C       -1.0106059735   -1.9344106457    5.4865042114
C        2.1244424563   -2.7991456767    3.2889300793
N       -2.7395865903   -1.1476783388    0.9148996335
N       -1.8541040832   -4.2982131274    4.8801872608
O        1.9383057695   -2.2531064924    1.9717414062
F        1.5447926780   -1.0552483550    4.8308447370
H       -5.8922141304   -4.6714257326   -1.3858265184
H       -6.8947126286   -2.4773442574   -0.7756871028
H       -3.4788960348   -5.1240936544   -0.8990141327
H       -0.9835036618   -5.0651070148   -0.1781650353
H       -5.4958296577   -0.7220666641    0.3213472560
H        1.2809244895   -4.5120942213    0.7497354110
H       -0.1324550938   -0.6272531956    1.9247044137
H       -0.4770160327   -4.3479066399    3.2719900968
H        0.1900684486   -4.8880738921    4.8272760399
H       -1.9422989546   -2.2701873370    7.4376470269
H       -0.3236568437   -2.9567872052    7.2612739001
H       -2.1909857107   -1.2539188525    3.7821519551
H       -3.1084034376   -1.4328751649    5.2802607200
H       -1.3480467962   -4.9674850963    6.8388418777
H       -2.9336660624   -4.1983359752    6.6917814078
H       -3.7900934584   -3.4856984086    4.5028620367
H       -2.6671790861   -3.3986793511    3.1434625058
H       -0.6628067741   -0.9321528099    5.7549617496
H        2.0367001482   -3.8890654026    3.2595092150
H        3.1420690910   -2.5684226557    3.6177532649
H       -2.8481542668   -0.1967614017    1.2475834676
46   

C       -5.2831018127   -3.9250680709   -0.9311088690
C       -5.8538446897   -2.6762029206   -0.6162403203
C       -3.9348725207   -4.1835766972   -0.6327415305
C       -0.8127002241   -4.1058081883    0.3454949756
C       -5.0803066987   -1.6761207296   -0.0016401053
C        0.4440714992   -3.7848060367    0.8863834969
C       -0.3510676370   -1.5730207943    1.4936782356
C       -3.1915048493   -3.1728708817   -0.0226078736
C       -1.8150842208   -3.1402888919    0.4071517391
C       -3.7436316445   -1.9414627548    0.2897597326
C       -1.5928846946   -1.8941950708    0.9604383217
C        0.6775104134   -2.5263624080    1.4786258220
C       -0.0617450285   -2.7871077836    4.6355553191
C        1.1737570683   -2.3454640732    4.3797326362
C       -0.5236630762   -4.2301454427    4.4004114869
C       -1.3202717206   -2.7511518112    6.7262780011
C       -2.3711015558   -1.9348363382    4.6186428016
C       -1.9462776197   -4.1265295263    6.3926739672
C       -2.7854263751   -3.3762000473    4.2312396883
C       -1.0581761366   -1.9513771171    5.4310780741
C        2.1123585937   -2.8465635925    3.3271155816
N       -2.7675606126   -1.1352336593    0.8922187505
N       -1.9009362906   -4.3393017022    4.9291996154
O        1.8881530571   -2.2248447985    2.0502137185
F        1.6050461336   -1.2468242798    5.0475698320
H       -5.8872401614   -4.6900756457   -1.4052881420
H       -6.8953582007   -2.4843680414   -0.8488740901
H       -3.4840914557   -5.1398367930   -0.8679202922
H       -1.0018606590   -5.0744019208   -0.1012111368
H       -5.5120412756   -0.7141326240    0.2436783942
H        1.2465300500   -4.5107527812    0.8556769349
H       -0.1774538244   -0.6036397866    1.9412258332
H       -0.5168420812   -4.4596950244    3.3308268760
H        0.1437533333   -4.9327742693    4.9100503496
H       -1.9839391489   -2.2000080530    7.3995148441
H       -0.3683658007   -2.8988721094    7.2462491320
H       -2.2560290806   -1.3334010588    3.7135885986
H       -3.1592717129   -1.4748638467    5.2225340159
H       -1.4085800647   -4.9216294216    6.9197121582
H       -2.9884676081   -4.1502673965    6.7286225367
H       -3.8347668781   -3.5484965961    4.4918530345
H       -2.6900934322   -3.5092419660    3.1480244150
H       -0.7104974420   -0.9374163351    5.6522583746
H        2.0250897017   -3.9334749276    3.2401182811
H        3.1380882206   -2.6309211101    3.6406993671
H       -2.8804373840   -0.1791203096    1.2081629274
46   

C       -5.3863093258   -3.6721587734   -0.7837700044
C       -5.8381485118   -2.3402756969   -0.7031683042
C       -4.0700476386   -3.9974745557   -0.4159002488
C       -0.9615780205   -4.0379559840    0.6063074515
C       -4.9767826023   -1.3236014791   -0.2551118149
C        0.3161436379   -3.7449785197    1.1120840149
C       -0.2673301192   -1.3965761445    1.3056898267
C       -3.2376147236   -2.9682775281    0.0251282876
C       -1.8666832910   -2.9877714222    0.4728674003
C       -3.6724550364   -1.6555576659    0.1066184440
C       -1.5297111041   -1.6895241332    0.8045436907
C        0.6664231363   -2.4283534743    1.4806847446
C       -0.0489452900   -2.8886531986    4.5496678335
C        1.1376024892   -2.3018783937    4.3357611866
C       -0.2429841769   -4.4105191697    4.6244662034
C       -1.4038172603   -2.6448377146    6.5643232037
C       -2.4743095486   -2.4935833565    4.3224137412
C       -1.7611011897   -4.1506949224    6.5272380680
C       -2.6085317920   -4.0330633541    4.2458951702
C       -1.2183197154   -2.1021638519    5.1297573914
C        2.1538400114   -2.7060121916    3.3109571513
N       -2.6277384245   -0.8497885639    0.5816836361
N       -1.6064014470   -4.6544530428    5.1440024108
O        1.8979824465   -2.1365073226    2.0149798177
F        1.3808690734   -1.1171350593    4.9491883453
H       -6.0576189486   -4.4491706279   -1.1311853727
H       -6.8555994021   -2.0968120816   -0.9882009732
H       -3.7104121743   -5.0174878187   -0.4721241956
H       -1.2395096852   -5.0484524244    0.3323179980
H       -5.3170034512   -0.2979097745   -0.1898494679
H        1.0437075298   -4.5382899677    1.2238397427
H       -0.0061692239   -0.3842299347    1.5829014175
H       -0.1379006885   -4.8517604169    3.6285240571
H        0.5088300407   -4.8591486600    5.2822439238
H       -2.1886262473   -2.0947102250    7.0924528035
H       -0.4699812955   -2.5033696267    7.1177476208
H       -2.4299807003   -2.0830350543    3.3117190885
H       -3.3582078591   -2.0697431208    4.8087526049
H       -1.1186711001   -4.7056683058    7.2189197099
H       -2.7980855231   -4.2929790211    6.8497262773
H       -3.6237911911   -4.3351928250    4.5230770750
H       -2.4347464738   -4.3652592965    3.2165923865
H       -1.0609935879   -1.0187537865    5.1269480326
H        2.1951611403   -3.7966541912    3.2414702248
H        3.1390823500   -2.3686545657    3.6461760979
H       -2.6551146659    0.1511332265    0.7371041442
46   

C       -5.3472429611   -3.5519878805   -0.8221725256
C       -5.7927882245   -2.2166305521   -0.7687252430
C       -4.0356116298   -3.8774215189   -0.4379567660
C       -0.9374916681   -3.9158218445    0.6178178440
C       -4.9298374176   -1.1966568844   -0.3313708356
C        0.3366970641   -3.6208578985    1.1319830379
C       -0.2348116766   -1.2657967003    1.2740090537
C       -3.2012248654   -2.8447945259   -0.0084611257
C       -1.8343237048   -2.8631817247    0.4522435164
C       -3.6301704116   -1.5287635641    0.0468595046
C       -1.4938940381   -1.5609037283    0.7651845234
C        0.6925833607   -2.2982262914    1.4782497052
C        0.0430136233   -2.9649977179    4.4651010520
C        1.2445504150   -2.3685617973    4.3412238226
C       -0.1409639314   -4.4843335509    4.6421720108
C       -1.3041138243   -2.5409396952    6.4654635288
C       -2.3983241379   -2.6770464349    4.2355663969
C       -1.5190767197   -4.0671510543    6.6135678154
C       -2.5459812292   -4.2056267940    4.4087913322
C       -1.1463109096   -2.1624353987    4.9761873055
C        2.2463602015   -2.6425647212    3.2573948767
N       -2.5858128304   -0.7200735052    0.5178920300
N       -1.4574548639   -4.7048356115    5.2787771384
O        1.9219545107   -1.9942634829    2.0141998693
F        1.4812187793   -1.2549907469    5.0782767457
H       -6.0199730737   -4.3315262694   -1.1610980046
H       -6.8066600591   -1.9730346143   -1.0661824746
H       -3.6811385879   -4.9001591431   -0.4729093470
H       -1.2191477405   -4.9298509923    0.3613813363
H       -5.2654347957   -0.1683490845   -0.2864548520
H        1.0556551820   -4.4184298209    1.2646762560
H        0.0288971828   -0.2496327289    1.5340452865
H       -0.1064217072   -4.9807453614    3.6670965218
H        0.6614078861   -4.8930856695    5.2653272361
H       -2.1527462415   -2.0062834125    6.9031359036
H       -0.4060856542   -2.2440398846    7.0162293674
H       -2.3273712165   -2.4404874807    3.1727951021
H       -3.2901217408   -2.1746470302    4.6223218361
H       -0.7508813182   -4.4885164835    7.2706296771
H       -2.4930609996   -4.2623110776    7.0746471469
H       -3.5214778253   -4.4387464997    4.8482871095
H       -2.4978033347   -4.6939264208    3.4294798385
H       -1.0210995484   -1.0828088235    4.8414631667
H        2.3404574220   -3.7219570432    3.1092201845
H        3.2237318722   -2.2785585091    3.5877702857
H       -2.6109222009    0.2830022657    0.6588306826
46   

C       -5.2797994541   -3.5829663434   -0.8965161462
C       -5.7592299589   -2.2659087634   -0.7550630904
C       -3.9564109892   -3.8971297005   -0.5444168751
C       -0.8503998771   -3.9215509273    0.4907972331
C       -4.9188605001   -1.2531924253   -0.2605916145
C        0.4173214260   -3.6282684015    1.0225450215
C       -0.2125279517   -1.3017668550    1.3125363193
C       -3.1446850514   -2.8718745316   -0.0574379827
C       -1.7740620302   -2.8835293330    0.3928972536
C       -3.6074041893   -1.5740146619    0.0855241429
C       -1.4659640262   -1.5959406494    0.7890214905
C        0.7418592966   -2.3208336551    1.4510497973
C        0.1448060369   -3.2150920757    4.3356657125
C        1.3819845824   -2.6619353565    4.3040454024
C       -0.1195148636   -4.7207473233    4.5593526722
C       -1.1558194588   -2.5833078789    6.3366589717
C       -2.2926462988   -2.9280658150    4.1541624870
C       -1.2072078971   -4.1020566371    6.6392701613
C       -2.5400934459   -4.3791491055    4.6220791240
C       -1.0187230893   -2.3538105336    4.8129090472
C        2.3548340569   -2.7773256081    3.1627306519
N       -2.5808192345   -0.7698615256    0.6013462976
N       -1.3527936423   -4.8495375165    5.3678844662
O        1.9636508926   -2.0152304080    2.0053894929
F        1.6681617505   -1.6915046028    5.2066202774
H       -5.9356154486   -4.3571939118   -1.2781108880
H       -6.7819902315   -2.0310064828   -1.0281269613
H       -3.5763496780   -4.9061383984   -0.6459036626
H       -1.1081204256   -4.9243992927    0.1726626095
H       -5.2808640823   -0.2392180382   -0.1471816110
H        1.1538344933   -4.4164135382    1.1046401938
H        0.0258355832   -0.2976172561    1.6358187889
H       -0.2399099750   -5.2272383383    3.5960307209
H        0.7273445130   -5.1764277190    5.0831566329
H       -2.0765595930   -2.1052834663    6.6852906447
H       -0.3231832450   -2.1316206841    6.8840148849
H       -2.1610802513   -2.9195933936    3.0715337938
H       -3.1679736626   -2.3127079298    4.3828740612
H       -0.2798305823   -4.4092583632    7.1348684654
H       -2.0348667544   -4.3217811658    7.3217159149
H       -3.4164794164   -4.4130774729    5.2780701100
H       -2.7434401617   -5.0215685529    3.7588817857
H       -0.8859524605   -1.2962481965    4.5606033039
H        2.4858856873   -3.8306914368    2.9001656923
H        3.3287628429   -2.4088224312    3.4983372241
H       -2.6313910844    0.2209703695    0.8069269618
46   

C       -5.2832456104   -3.5744552410   -1.0074379358
C       -5.7759296161   -2.2585777861   -0.9060899244
C       -3.9690089080   -3.8719423627   -0.6092968164
C       -0.8918472685   -3.8501635777    0.5124409810
C       -4.9586679764   -1.2306974558   -0.4043628474
C        0.3576525315   -3.5367850318    1.0759274133
C       -0.3039073675   -1.2137242228    1.3146845832
C       -3.1797686526   -2.8315801933   -0.1172947245
C       -1.8229182193   -2.8235716836    0.3734416343
C       -3.6566861746   -1.5353289546   -0.0111867282
C       -1.5386483416   -1.5280218774    0.7596119409
C        0.6580621088   -2.2188738888    1.4971306170
C        0.1957865204   -3.3377357618    4.3235469507
C        1.4546742719   -2.8055595559    4.3260844920
C       -0.1172228022   -4.8279850318    4.6154089422
C       -1.1138316196   -2.5772302899    6.2838678491
C       -2.2332536929   -3.0004628358    4.1115607740
C       -1.1825174781   -4.0785332084    6.6604067040
C       -2.5283464155   -4.4142189868    4.6602672047
C       -0.9493868453   -2.4269164468    4.7514881696
C        2.3655314123   -2.7264701691    3.1266233705
N       -2.6533518742   -0.7143918274    0.5233910889
N       -1.3539441634   -4.8826904839    5.4273366468
O        1.8588391317   -1.8766532310    2.0801960014
F        1.8282941296   -2.0612125734    5.3945793602
H       -5.9218026643   -4.3606349738   -1.3938291490
H       -6.7911685834   -2.0363536969   -1.2154347492
H       -3.5791719489   -4.8798608937   -0.6796449974
H       -1.1308929411   -4.8601221564    0.2022971760
H       -5.3310436836   -0.2175427531   -0.3212214057
H        1.0933256826   -4.3216305252    1.1864474829
H       -0.0853562732   -0.2017279831    1.6272604577
H       -0.2522507088   -5.3738243148    3.6758402494
H        0.7152837573   -5.2850808620    5.1606318965
H       -2.0380019451   -2.0768319388    6.5893271002
H       -0.2924602481   -2.1028319066    6.8284102208
H       -2.0890744977   -3.0585704929    3.0324071590
H       -3.0926480180   -2.3480099577    4.2932927828
H       -0.2520683375   -4.3751635792    7.1569723206
H       -2.0026963624   -4.2534372458    7.3644475147
H       -3.4007095896   -4.3807426565    5.3217196743
H       -2.7598693676   -5.0962780057    3.8355671064
H       -0.7859200152   -1.3865599811    4.4505619352
H        2.5593078567   -3.7332456769    2.7474505900
H        3.3289048998   -2.3217663001    3.4508713530
H       -2.7179399257    0.2794602223    0.7094794364
46   

C       -5.2694761198   -3.5848586821   -1.1319728051
C       -5.7795718313   -2.2733157023   -1.0671079687
C       -3.9658130857   -3.8611747441   -0.6867251614
C       -0.9250957474   -3.7851265695    0.5265312359
C       -4.9910777024   -1.2289503823   -0.5534992439
C        0.3003797438   -3.4509100275    1.1293561448
C       -0.3994933350   -1.1355261986    1.3252032875
C       -3.2048200383   -2.8045194172   -0.1850356421
C       -1.8650821460   -2.7734059718    0.3493588226
C       -3.6999270443   -1.5128984259   -0.1122188551
C       -1.6101259868   -1.4711152965    0.7310555015
C        0.5701562176   -2.1243611078    1.5532095424
C        0.2685136122   -3.4621642773    4.3326845992
C        1.5561510103   -2.9689588247    4.3254367370
C       -0.1162075126   -4.9284862906    4.6861904247
C       -0.9864472418   -2.5452891630    6.2400977232
C       -2.1487611008   -3.0257452163    4.1004679353
C       -1.1292107295   -4.0212618376    6.6943122273
C       -2.5049667445   -4.3943429328    4.7219834118
C       -0.8343941380   -2.4801495581    4.7008613487
C        2.3735513067   -2.6746544537    3.0857929940
N       -2.7250854399   -0.6736119050    0.4461116561
N       -1.3484892287   -4.8792046069    5.5053830421
O        1.7367950246   -1.7467124830    2.1875167105
F        2.1319994027   -2.6974233953    5.5201266784
H       -5.8864216855   -4.3841156086   -1.5265555474
H       -6.7862483497   -2.0673207243   -1.4134076884
H       -3.5630097045   -4.8655958668   -0.7282936289
H       -1.1408881839   -4.8010752570    0.2188314886
H       -5.3772102638   -0.2190932410   -0.4976719558
H        1.0318363650   -4.2341247521    1.2698744920
H       -0.2066831044   -0.1174530574    1.6349808580
H       -0.2842470059   -5.5062328083    3.7714033568
H        0.6953737183   -5.4021472772    5.2486384547
H       -1.8778823696   -1.9814291717    6.5318397115
H       -0.1305175595   -2.0897009578    6.7468942934
H       -2.0183970271   -3.1448672224    3.0247470845
H       -2.9748274082   -2.3250542660    4.2552837177
H       -0.2124762758   -4.3393165217    7.2031664435
H       -1.9533636574   -4.1183098446    7.4087008648
H       -3.3696904259   -4.2866096666    5.3855425243
H       -2.7748382347   -5.1054167695    3.9343064629
H       -0.6230615628   -1.4653110024    4.3477104981
H        2.6124647820   -3.6096148801    2.5732897126
H        3.3283572680   -2.2412184077    3.3979334976
H       -2.8074050323    0.3217367510    0.6164398409
