23   

C        5.7000039601    1.7602111884    0.0652227198
C        4.7727680862    2.0879640712   -0.9234350163
C        5.4856006447    0.6380481462    0.8651667197
C        3.6365486255    1.2927406435   -1.1114235844
C        4.3483118534   -0.1559178952    0.6749331641
C        3.3976863882    0.1482551491   -0.3220298855
C        1.3270255801   -0.6473561016   -1.5648455377
C        2.1983112263   -0.6870352723   -0.5130619146
C        0.1892132436   -1.5997404951   -1.3689845114
C        1.7411792988   -1.7138808513    0.5142638396
C        0.8295704502   -2.5754299166   -0.3729920545
H        6.5808483534    2.3748712568    0.2125598575
H        4.9310625452    2.9611689449   -1.5459937978
H        6.2016098914    0.3797359458    1.6370456980
H        2.9307852213    1.5781864622   -1.8808306304
H        4.2252210585   -1.0149433398    1.3201337393
H        1.4458910300   -0.0288864354   -2.4460908138
H       -0.1209080743   -2.0962874851   -2.2938260241
H       -0.6561098318   -1.0751766764   -0.9115323728
H        1.1673353762   -1.2168682447    1.3029589596
H        2.5466275912   -2.3177692375    0.9401962342
H        0.1018300914   -3.1675892668    0.1908368170
H        1.4692694471   -3.2584096230   -0.9424397973
23   

C        5.6766887083    1.7465984358    0.0665799265
C        4.6709808803    2.1522270854   -0.8120349061
C        5.5464499947    0.5399924755    0.7562733580
C        3.5390799002    1.3507647163   -0.9997260304
C        4.4132841148   -0.2600648560    0.5665035328
C        3.3879415249    0.1268787584   -0.3171525404
C        1.4071580121   -0.7590296386   -1.6285643513
C        2.1913202213   -0.7122278493   -0.5124870485
C        0.2402921986   -1.6766200246   -1.4355961798
C        1.6315449795   -1.6215807353    0.5725220574
C        0.7810504966   -2.5578782548   -0.2999662151
H        6.5544411239    2.3658299792    0.2132076983
H        4.7652630843    3.0897672636   -1.3479877772
H        6.3253040670    0.2204124760    1.4392220570
H        2.7649725746    1.6874531739   -1.6783269670
H        4.3485327174   -1.1933550602    1.1101167089
H        1.6157134137   -0.2263661293   -2.5489613955
H       -0.0032067041   -2.2577486272   -2.3306051031
H       -0.6296256430   -1.1015439313   -1.1016176966
H        1.0016020837   -1.0384022040    1.2517944027
H        2.3876804452   -2.1786473870    1.1316472206
H       -0.0007656247   -3.0847268646    0.2562321957
H        1.4530621789   -3.2993701556   -0.7454938582
23   

C        5.6713874157    1.7393838734    0.0768844421
C        4.6016246902    2.2067060758   -0.6903570620
C        5.6120876493    0.4647471645    0.6458425139
C        3.4763862531    1.3981967030   -0.8885834560
C        4.4852066824   -0.3415989416    0.4455145561
C        3.4032627972    0.1089207824   -0.3287415061
C        1.4996781529   -0.8735556805   -1.6799114088
C        2.2086362474   -0.7352390689   -0.5238182256
C        0.3045394552   -1.7528623308   -1.4790194578
C        1.5561086867   -1.5166423168    0.6072323220
C        0.7488555632   -2.5246001609   -0.2259551730
H        6.5438767218    2.3641032562    0.2314293932
H        4.6414002025    3.1965329603   -1.1305567354
H        6.4398138093    0.0987807388    1.2425588850
H        2.6478523697    1.7728015383   -1.4778267623
H        4.4580231868   -1.3292477516    0.8891618064
H        1.7819404821   -0.4277087254   -2.6267468754
H        0.1110437381   -2.4168452016   -2.3273691040
H       -0.5746449999   -1.1362653432   -1.2648268462
H        0.8933965889   -0.8566569286    1.1760435264
H        2.2678458235   -2.0142029234    1.2721776697
H       -0.0797730684   -2.9826095423    0.3233699902
H        1.4346827102   -3.3157509369   -0.5477947408
23   

C        5.6726519304    1.7300691485    0.0829607841
C        4.5442027515    2.2474947757   -0.5591748824
C        5.6769642424    0.4013058384    0.5167880597
C        3.4240556432    1.4345542003   -0.7686015091
C        4.5547444904   -0.4086393384    0.3051472301
C        3.4191384829    0.0935790363   -0.3472131755
C        1.5873641177   -0.9993638164   -1.7196673830
C        2.2247493325   -0.7562099141   -0.5408781989
C        0.3648663422   -1.8375405016   -1.5063029507
C        1.4884616942   -1.4034335867    0.6223556556
C        0.7137048811   -2.4807999669   -0.1533395936
H        6.5409872040    2.3582702303    0.2465131678
H        4.5346850945    3.2788822781   -0.8927436575
H        6.5489900236   -0.0025608852    1.0183630301
H        2.5478905820    1.8418761105   -1.2592788331
H        4.5644522418   -1.4373617610    0.6453918900
H        1.9361766841   -0.6503396831   -2.6848858487
H        0.2117982218   -2.5836159172   -2.2923858000
H       -0.5136747935   -1.1904455603   -1.4141518736
H        0.8067628148   -0.6779740789    1.0776167774
H        2.1545769236   -1.8352246655    1.3755143612
H       -0.1570134574   -2.8673581079    0.3857140383
H        1.4015716678   -3.3109237749   -0.3471253764
23   

C        5.6786810688    1.7211883539    0.0745162233
C        4.4947029114    2.2798189785   -0.4159896341
C        5.7375602575    0.3528944549    0.3556524043
C        3.3731114612    1.4688605389   -0.6258677611
C        4.6136024774   -0.4545407361    0.1436547626
C        3.4231676683    0.0917078029   -0.3552662704
C        1.6764439948   -1.1360911819   -1.7350642082
C        2.2263393877   -0.7610091579   -0.5477672208
C        0.4322625674   -1.9406555004   -1.5172723644
C        1.4050403639   -1.2720187919    0.6261761707
C        0.6766146047   -2.4280292116   -0.0784031756
H        6.5479968333    2.3478067540    0.2389210357
H        4.4436068478    3.3409774328   -0.6315074959
H        6.6526717181   -0.0832228188    0.7396932757
H        2.4539732185    1.9044743055   -0.9998460929
H        4.6608225227   -1.5140354690    0.3664950828
H        2.1005963874   -0.9014035431   -2.7047071198
H        0.3268324111   -2.7702286135   -2.2234209393
H       -0.4431103820   -1.2842848182   -1.5619864281
H        0.7003248705   -0.4992139243    0.9492061690
H        2.0164461177   -1.6168566381    1.4658750022
H       -0.2343422463   -2.7496901573    0.4362327363
H        1.3679406016   -3.2762239471   -0.1276870532
23   

C        5.6882158956    1.7088275021    0.0661811216
C        4.4587913515    2.3004169643   -0.2393962596
C        5.7850284231    0.3174739886    0.1655122981
C        3.3289180960    1.4996500358   -0.4439795983
C        4.6526506460   -0.4796638458   -0.0406414158
C        3.4149758020    0.1014554919   -0.3468766136
C        1.7771296793   -1.2719757176   -1.7288611407
C        2.2139742305   -0.7465139839   -0.5519983296
C        0.5176138866   -2.0564398786   -1.5272347239
C        1.2995216499   -1.1329829327    0.6001637133
C        0.6369838369   -2.3712019152   -0.0256485942
H        6.5640542404    2.3274097505    0.2263406721
H        4.3794686510    3.3787527381   -0.3169790335
H        6.7363351650   -0.1446850596    0.4032874516
H        2.3759573392    1.9590610973   -0.6789798222
H        4.7289410559   -1.5577902196    0.0387040134
H        2.2934122548   -1.1601435798   -2.6755129656
H        0.4725916239   -2.9632336864   -2.1384895185
H       -0.3497931000   -1.4173818565   -1.7230519594
H        0.5668831270   -0.3384856067    0.7737217166
H        1.8410236063   -1.3715091892    1.5209565113
H       -0.3146730425   -2.6417290458    0.4426717680
H        1.3312611889   -3.2113097844    0.0835371953
23   

C        5.6974964471    1.6997656241    0.0678970360
C        4.4409399584    2.3021643452   -0.0452180566
C        5.8121693178    0.3088708214   -0.0166976521
C        3.3015368006    1.5124576115   -0.2394701665
C        4.6702671914   -0.4774284246   -0.2115856473
C        3.4037715480    0.1132658971   -0.3173723764
C        1.8794542428   -1.3990619878   -1.6766119696
C        2.1991330858   -0.7226865353   -0.5393253872
C        0.6037193957   -2.1632799160   -1.5022775991
C        1.1828758464   -0.9847798282    0.5616839568
C        0.5829167533   -2.2967019933    0.0303520660
H        6.5809261228    2.3097708207    0.2190114173
H        4.3483041426    3.3804797003    0.0162051786
H        6.7851655041   -0.1614422117    0.0681263959
H        2.3288073626    1.9812219189   -0.3311433061
H        4.7618701579   -1.5551964422   -0.2786488967
H        2.4917022433   -1.4110395746   -2.5711524780
H        0.6128854091   -3.1364654765   -2.0030357682
H       -0.2394697484   -1.5585140306   -1.8521966608
H        0.4349061367   -0.1857350527    0.5724783522
H        1.6378414415   -1.1053822671    1.5498680268
H       -0.4080604787   -2.5208101605    0.4376514041
H        1.2647477759   -3.1095113026    0.3027058981
23   

C        5.6962326997    1.6879640639    0.0832881363
C        4.4270544677    2.2708860698    0.1408031815
C        5.8216203821    0.3187262491   -0.1691281532
C        3.2858875338    1.4831937795   -0.0508619532
C        4.6781502838   -0.4661202868   -0.3605631199
C        3.3980327187    0.1026655345   -0.2941189738
C        1.9617452279   -1.5216557403   -1.6081928488
C        2.1942385425   -0.7234049831   -0.5290747895
C        0.6626674846   -2.2520472207   -1.4648062017
C        1.0815261581   -0.8594184213    0.4997002853
C        0.5097504987   -2.2183640448    0.0652084485
H        6.5810676992    2.2967261879    0.2311651943
H        4.3258543157    3.3332849091    0.3310320794
H        6.8044847040   -0.1359098073   -0.2180367356
H        2.3041400156    1.9403614804   -0.0135774254
H        4.7809035962   -1.5265815371   -0.5585634845
H        2.6491011015   -1.6413065715   -2.4378490410
H        0.6978062180   -3.2738384380   -1.8555082202
H       -0.1370183976   -1.6820019614   -1.9492727272
H        0.3466364029   -0.0607924271    0.3576155352
H        1.4467034266   -0.8728040835    1.5314704394
H       -0.5155409181   -2.3910039119    0.4074306171
H        1.1539650697   -3.0002300448    0.4816898618
23   

C        5.6998642510    1.6832697306    0.0959291961
C        4.4271318062    2.2239246355    0.2976503273
C        5.8330821833    0.3509417439   -0.3044701425
C        3.2903226880    1.4312886120    0.1007393514
C        4.6942988493   -0.4394510372   -0.5007596935
C        3.4092259711    0.0860422064   -0.2939578817
C        2.0303974907   -1.6369332475   -1.5399147298
C        2.2093248496   -0.7377691223   -0.5305899238
C        0.7053151392   -2.3237811926   -1.4210440018
C        1.0170345369   -0.7455788117    0.4153739512
C        0.4445515364   -2.1319633504    0.0817971362
H        6.5811635989    2.2962713203    0.2473677102
H        4.3194025587    3.2582448636    0.6037538123
H        6.8187543184   -0.0711047610   -0.4639617409
H        2.3071776571    1.8613278755    0.2506039619
H        4.8084566179   -1.4714031212   -0.8105024312
H        2.7672513283   -1.8535607638   -2.3047150991
H        0.7411894786   -3.3804753949   -1.7039881108
H       -0.0422486627   -1.7905820257   -2.0177142712
H        0.3153245039    0.0458339131    0.1335465561
H        1.3009069728   -0.6568041794    1.4687825407
H       -0.6065254364   -2.2507051911    0.3633474878
H        1.0382029990   -2.8776958818    0.6216008371
23   

C        5.6957665473    1.6864313995    0.1002356934
C        4.4269911594    2.1640931514    0.4370853488
C        5.8339137610    0.4048955296   -0.4384821607
C        3.2988524127    1.3603006975    0.2353977367
C        4.7042806740   -0.3972691986   -0.6394915452
C        3.4209505649    0.0658961469   -0.3031922162
C        2.0803932058   -1.7493920506   -1.4652918749
C        2.2279696074   -0.7665864348   -0.5296377703
C        0.7308218623   -2.3906640594   -1.3693314093
C        0.9755226386   -0.6562886704    0.3280681760
C        0.3826399544   -2.0529660388    0.0884759354
H        6.5700282421    2.3085061410    0.2554382309
H        4.3151401525    3.1590580100    0.8526180390
H        6.8168949861    0.0306149294   -0.7007429191
H        2.3217757504    1.7500388202    0.4939964341
H        4.8304774350   -1.3902621779   -1.0529903402
H        2.8474259319   -2.0512712769   -2.1686097388
H        0.7531217925   -3.4698140174   -1.5507232093
H        0.0378651310   -1.8984515152   -2.0597647580
H        0.3183757282    0.1215126234   -0.0738068449
H        1.1898980956   -0.4765285876    1.3863272525
H       -0.6871875441   -2.1185326101    0.3105137669
H        0.9182954670   -2.7589581218    0.7323839262
23   

C        5.6947102166    1.6944870655    0.0996285635
C        4.4420016309    2.0987751969    0.5654489862
C        5.8244024069    0.4753481672   -0.5686760869
C        3.3210436618    1.2850893368    0.3627961628
C        4.7026071051   -0.3373339817   -0.7707953076
C        3.4325919138    0.0533148632   -0.3090337852
C        2.1246086128   -1.8513145612   -1.3733480009
C        2.2461631201   -0.7920407375   -0.5187855407
C        0.7528735935   -2.4478935975   -1.3107627759
C        0.9427880510   -0.5740788432    0.2370283480
C        0.3210448255   -1.9698221497    0.0825945646
H        6.5629337309    2.3246648435    0.2560636216
H        4.3365644683    3.0453533006    1.0831656057
H        6.7954046579    0.1569148338   -0.9304497174
H        2.3615435148    1.6294490848    0.7277218800
H        4.8315035834   -1.2808309537   -1.2853494947
H        2.9166706410   -2.2348103328   -2.0047712818
H        0.7540089645   -3.5393806209   -1.3922889215
H        0.1215463172   -2.0044921909   -2.0879109480
H        0.3394361761    0.1824514689   -0.2749114083
H        1.0873835461   -0.3116176137    1.2897346029
H       -0.7626259691   -1.9862946061    0.2359538043
H        0.7898097435   -2.6283934715    0.8218838752
23   

C        5.6966325887    1.7040460660    0.0909192054
C        4.4764698798    2.0273538048    0.6868259097
C        5.7967986971    0.5600860127   -0.7024796674
C        3.3582652788    1.2080694924    0.4905651557
C        4.6784587439   -0.2586393158   -0.8984138245
C        3.4395211056    0.0501590050   -0.3058373391
C        2.1688977907   -1.9405405393   -1.2601453906
C        2.2580617444   -0.8081433185   -0.4991277687
C        0.7812407342   -2.5016044991   -1.2473932300
C        0.9101780687   -0.4979625792    0.1382523226
C        0.2601897685   -1.8871802708    0.0578785455
H        6.5621828646    2.3389146459    0.2431765488
H        4.3939037558    2.9159592325    1.3022531317
H        6.7422755310    0.3049226975   -1.1673398113
H        2.4306475789    1.4995917481    0.9649254842
H        4.7885357925   -1.1392111379   -1.5174058877
H        2.9906268183   -2.3993086290   -1.7956771774
H        0.7592966867   -3.5957575023   -1.2278009407
H        0.2213518260   -2.1206792768   -2.1079128995
H        0.3672643057    0.2268512326   -0.4768344456
H        0.9769297739   -0.1591161036    1.1762647398
H       -0.8319634463   -1.8650190116    0.1275647449
H        0.6515389652   -2.4866162858    0.8870629442
23   

C        5.7164753331    1.7159927963    0.0826737266
C        4.5492212214    1.9500213842    0.8117171079
C        5.7607641909    0.6626704754   -0.8320884564
C        3.4279244986    1.1318844830    0.6278450680
C        4.6395813069   -0.1549100200   -1.0154468815
C        3.4543747442    0.0641956737   -0.2890751920
C        2.2240235728   -1.9976766783   -1.1291211144
C        2.2742189628   -0.7995502354   -0.4736592417
C        0.8304801379   -2.5419233167   -1.1694242835
C        0.8901452267   -0.4153842120    0.0318861634
C        0.2218100990   -1.7987879599    0.0266857412
H        6.5842538509    2.3499112109    0.2259457626
H        4.5108436859    2.7672188697    1.5229925722
H        6.6641600103    0.4782352033   -1.4021607261
H        2.5469704781    1.3496164754    1.2156750118
H        4.6994109341   -0.9602103868   -1.7361271997
H        3.0796865905   -2.5121322345   -1.5490578963
H        0.7888463559   -3.6287491934   -1.0463333934
H        0.3440995624   -2.2412928969   -2.1032531329
H        0.4087107753    0.2570174278   -0.6853690822
H        0.8763091644    0.0131645072    1.0372498678
H       -0.8718249998   -1.7570933545    0.0070814853
H        0.5349165265   -2.3223570609    0.9365122042
23   

C        5.7118976118    1.7121991788    0.0766811009
C        4.6054937918    1.8531696639    0.9172293319
C        5.6921554423    0.7545579784   -0.9395783143
C        3.4807989648    1.0381480536    0.7413303565
C        4.5669263640   -0.0595838144   -1.1139882898
C        3.4431219064    0.0702795317   -0.2797042664
C        2.2558960327   -2.0535591613   -0.9952803138
C        2.2651530760   -0.7983991961   -0.4587912149
C        0.8650233414   -2.6009494301   -1.0760823868
C        0.8517030630   -0.3605040485   -0.1013692837
C        0.1783751963   -1.7384701244   -0.0069847503
H        6.5830190492    2.3429595301    0.2134238695
H        4.6184488356    2.5928710031    1.7095941245
H        6.5484436740    0.6420618496   -1.5947340254
H        2.6448112989    1.1632981138    1.4166938509
H        4.5669122457   -0.7921816316   -1.9117030540
H        3.1419069570   -2.6003272730   -1.2958673719
H        0.8086456051   -3.6693711553   -0.8451189354
H        0.4462687533   -2.3988293311   -2.0674430741
H        0.4301375528    0.2264812374   -0.9236017314
H        0.7707173090    0.1855118760    0.8419769580
H       -0.9110120175   -1.7013394918   -0.1070755633
H        0.4251529164   -2.1631943895    0.9720988587
23   

C        5.7102573936    1.7097852716    0.0786289078
C        4.6683543848    1.7506770905    1.0088847154
C        5.6256653201    0.8521297039   -1.0213793000
C        3.5426793145    0.9364979462    0.8367961046
C        4.4989253921    0.0387577064   -1.1909843780
C        3.4396109017    0.0748100277   -0.2706976421
C        2.2809289307   -2.1018315723   -0.8545086836
C        2.2654581360   -0.8032193318   -0.4396165551
C        0.8917700258   -2.6474736155   -0.9747091346
C        0.8376129369   -0.3191486278   -0.2340058953
C        0.1431670902   -1.6772055368   -0.0466898894
H        6.5827103830    2.3395330842    0.2114448735
H        4.7329037889    2.4104372355    1.8666074434
H        6.4329893483    0.8159741093   -1.7438963081
H        2.7488589075    0.9691193476    1.5728864056
H        4.4422656138   -0.6220425735   -2.0477995515
H        3.1830127472   -2.6725606167   -1.0427757222
H        0.8071917219   -3.6868331230   -0.6421491704
H        0.5435359239   -2.5445857699   -2.0077516575
H        0.4843390559    0.1810870593   -1.1413525604
H        0.7095817960    0.3287860457    0.6378475888
H       -0.9363403069   -1.6452602431   -0.2250136226
H        0.3177812921   -2.0013019407    0.9849793458
23   

C        5.7080474375    1.7093106269    0.0828040743
C        4.7419107524    1.6383707160    1.0905448403
C        5.5476850839    0.9624674881   -1.0880245642
C        3.6157112069    0.8238209809    0.9242837420
C        4.4202852329    0.1484860576   -1.2510662479
C        3.4370423665    0.0768424907   -0.2538317657
C        2.2890256523   -2.1396113359   -0.7003021054
C        2.2632693699   -0.8078743272   -0.4153209700
C        0.9027049226   -2.6802910913   -0.8684987085
C        0.8345858116   -0.2877179694   -0.3678701500
C        0.1042844953   -1.6134471238   -0.1003267160
H        6.5809829227    2.3394871812    0.2102950331
H        4.8656468380    2.2114952863    2.0023231538
H        6.2969203024    1.0122182140   -1.8698689480
H        2.8743660804    0.7647151625    1.7123545604
H        4.3019285070   -0.4307722333   -2.1592567669
H        3.1949558315   -2.7309214722   -0.7695478417
H        0.7757433857   -3.6799750230   -0.4412953363
H        0.6330302392   -2.6786243424   -1.9297814304
H        0.5589168278    0.1246732118   -1.3436823718
H        0.6635197784    0.4461256977    0.4256498931
H       -0.9583379793   -1.5884588900   -0.3617877427
H        0.1961433096   -1.8344728978    0.9685707748
23   

C        5.7069292041    1.7081677471    0.0888761402
C        4.8291863995    1.5055780846    1.1580362481
C        5.4612526829    1.0878989520   -1.1398788157
C        3.7061961241    0.6858448357    0.9954004053
C        4.3372213681    0.2683406487   -1.2984546938
C        3.4445102499    0.0644123029   -0.2375125344
C        2.2777259350   -2.1741670034   -0.5293903795
C        2.2654146535   -0.8187333144   -0.4041561714
C        0.8937089674   -2.7039255590   -0.7451379096
C        0.8530743617   -0.2675306500   -0.5254935841
C        0.0687383111   -1.5404393175   -0.1680211177
H        6.5769804196    2.3430025916    0.2129139967
H        5.0182862471    1.9815798830    2.1134334359
H        6.1412379583    1.2405665587   -1.9701939741
H        3.0293937004    0.5258011589    1.8264956736
H        4.1504408262   -0.2133264422   -2.2511162529
H        3.1703035802   -2.7850116780   -0.4560368166
H        0.7062654984   -3.6454592436   -0.2194574472
H        0.7064481717   -2.8187648288   -1.8179077501
H        0.6621123984    0.0370324070   -1.5594068705
H        0.6478902681    0.5549317127    0.1668146424
H       -0.9699587187   -1.5259085082   -0.5130637874
H        0.0730876148   -1.6388112133    0.9229017346
23   

C        5.7076551382    1.7143761206    0.0998450015
C        4.9332282491    1.3507958813    1.2056500265
C        5.3667726301    1.2452106347   -1.1724370767
C        3.8195270993    0.5196815908    1.0366584415
C        4.2524012451    0.4136893605   -1.3367531817
C        3.4681396699    0.0426152271   -0.2364538470
C        2.2543581525   -2.1909835826   -0.3551128003
C        2.2821843361   -0.8317888254   -0.4169077549
C        0.8711597662   -2.7076317040   -0.6045376573
C        0.9008259448   -0.2623437947   -0.7007623089
C        0.0502638914   -1.4577798364   -0.2411738282
H        6.5699811429    2.3587578665    0.2285087409
H        5.1939935118    1.7125109893    2.1937189401
H        5.9644417268    1.5255281478   -2.0322790865
H        3.2189089350    0.2392799603    1.8940301105
H        3.9891363355    0.0520730148   -2.3238506201
H        3.1147821729   -2.8085090814   -0.1237218315
H        0.6138934685   -3.5685485579    0.0204251702
H        0.7556197615   -2.9542837458   -1.6651669447
H        0.7866320506   -0.0864629177   -1.7750667199
H        0.6825121736    0.6468423745   -0.1318154198
H       -0.9614896084   -1.4609764531   -0.6589078613
H       -0.0228623432   -1.4141754340    0.8508320165
23   

C        5.6952038924    1.7204548679    0.1125925005
C        5.0283489273    1.1930279989    1.2223411648
C        5.2568756454    1.4042075527   -1.1768126523
C        3.9263489223    0.3491941337    1.0401660595
C        4.1545989188    0.5593484048   -1.3541526721
C        3.4830149147    0.0170012399   -0.2500041438
C        2.2156160866   -2.1860270118   -0.1936368091
C        2.2960650298   -0.8501953583   -0.4424731742
C        0.8358372156   -2.6976550543   -0.4700878920
C        0.9529046346   -0.2895329777   -0.8851059800
C        0.0360891487   -1.3908396281   -0.3282699890
H        6.5481151829    2.3751557087    0.2515282859
H        5.3622246338    1.4391090790    2.2238828449
H        5.7687819755    1.8145043971   -2.0397866925
H        3.4059326022   -0.0532429323    1.9013626924
H        3.8141894169    0.3198664677   -2.3547198961
H        3.0328489908   -2.7845860669    0.1924127854
H        0.5096484880   -3.4625901604    0.2415367330
H        0.7818587643   -3.0781356959   -1.4955010823
H        0.9082700245   -0.2555165971   -1.9782181645
H        0.7318447581    0.6927076807   -0.4556837159
H       -0.9475808368   -1.4244529194   -0.8072415892
H       -0.1023857858   -1.2001113220    0.7414031639
23   

C        5.6866611185    1.7274124816    0.1228401171
C        5.1242539205    1.0570957891    1.2129133582
C        5.1474465911    1.5513403667   -1.1548353222
C        4.0265358129    0.2095543460    1.0225660558
C        4.0498157851    0.7024179677   -1.3411669731
C        3.4840031792    0.0134044768   -0.2588623392
C        2.1737955368   -2.1484942343   -0.0572687386
C        2.3008388837   -0.8513616009   -0.4529803963
C        0.8051894834   -2.6710302373   -0.3663793666
C        0.9990084558   -0.3301332469   -1.0435278310
C        0.0254192366   -1.3465280942   -0.4257404008
H        6.5362750560    2.3849378422    0.2684772049
H        5.5353865021    1.1958196154    2.2063114072
H        5.5775854992    2.0736475342   -2.0017660397
H        3.5867035681   -0.3003299158    1.8716160234
H        3.6327349903    0.5734243963   -2.3329511104
H        2.9484377285   -2.7092203424    0.4532264280
H        0.4179763866   -3.3457922480    0.4034994408
H        0.8102507498   -3.1647595311   -1.3437964612
H        1.0237988731   -0.4230813372   -2.1338473775
H        0.7707577177    0.6981537453   -0.7457978884
H       -0.9263700320   -1.4215213594   -0.9611018766
H       -0.1762494601   -1.0322730046    0.6040028674
23   

C        5.6791241196    1.7308083798    0.1299979021
C        5.2140490178    0.9462452969    1.1886838542
C        5.0406800882    1.6704297470   -1.1116520205
C        4.1142715815    0.1004074410    1.0029612280
C        3.9412294150    0.8231543204   -1.2942997255
C        3.4691876097    0.0196370864   -0.2447253227
C        2.1207454853   -2.1023965099    0.0732743657
C        2.2924859941   -0.8486042713   -0.4338548388
C        0.7717342225   -2.6464407057   -0.2815844965
C        1.0423499095   -0.3878491906   -1.1694172031
C        0.0143095640   -1.3308727241   -0.5251178897
H        6.5305299449    2.3867298185    0.2723721918
H        5.7025732663    0.9947588342    2.1551749770
H        5.3959732762    2.2807011273   -1.9341211380
H        3.7533687524   -0.4957214941    1.8325859550
H        3.4525116188    0.7852774641   -2.2605724118
H        2.8495122396   -2.6196726285    0.6865731181
H        0.3227264422   -3.2408438524    0.5203102399
H        0.8405762804   -3.2332558204   -1.2035698128
H        1.1451838827   -0.5933742636   -2.2396242558
H        0.8031050935    0.6662390287   -0.9967270939
H       -0.8983872523   -1.4532100639   -1.1168518127
H       -0.2548405176   -0.9148144011    0.4518071914
23   

C        5.7053891331    1.7361096651    0.0561662722
C        5.0121522015    1.7604498221   -1.1560066303
C        5.2388710713    0.9408607309    1.1052956261
C        3.8531983778    0.9920259600   -1.3164087780
C        4.0793388734    0.1735472673    0.9425378651
C        3.3636531262    0.1897129285   -0.2672796349
C        1.1060795766   -0.3840158095   -1.2742334201
C        2.1527460967   -0.6308468774   -0.4338707671
C        0.0716523778   -1.4625527065   -1.1820704159
C        1.9406126267   -1.9410672215    0.3108802689
C        0.9369048018   -2.6106624380   -0.6399227127
H        6.6031904686    2.3307468351    0.1816854353
H        5.3730965657    2.3727355873   -1.9745063601
H        5.7748365412    0.9177992985    2.0472838655
H        3.3341622373    1.0143162492   -2.2667160041
H        3.7316741449   -0.4342153881    1.7690959941
H        1.0415512398    0.4641908800   -1.9454584568
H       -0.3830473776   -1.7065188394   -2.1473150194
H       -0.6965280958   -1.1767848520   -0.4558553952
H        1.4836556169   -1.7435146089    1.2858073964
H        2.8569183179   -2.5294583044    0.4220964785
H        0.3580001965   -3.4128203826   -0.1713700070
H        1.5006436258   -3.0300590961   -1.4803289153
23   

C        5.7041758968    1.7435235443    0.0606056285
C        4.9430440911    1.8737049335   -1.1018906308
C        5.3132039945    0.8334916759    1.0438346264
C        3.7936892227    1.0947467247   -1.2794182368
C        4.1632556491    0.0556860874    0.8643857983
C        3.3793782981    0.1687438242   -0.3003233518
C        1.1697806796   -0.4687914062   -1.3866713158
C        2.1709597129   -0.6530664534   -0.4754842674
C        0.1026815623   -1.5088866664   -1.2416235874
C        1.8821376580   -1.8757538466    0.3841812108
C        0.9060429263   -2.6149163751   -0.5429368734
H        6.5945049802    2.3463963160    0.1993764447
H        5.2429776063    2.5781404961   -1.8693077857
H        5.8999775362    0.7298258948    1.9494336810
H        3.2258675005    1.2109177043   -2.1936032894
H        3.8822738491   -0.6349087067    1.6496144622
H        1.1487773267    0.3117067419   -2.1373735239
H       -0.3097900449   -1.8390399510   -2.2001918417
H       -0.6926398395   -1.1334925249   -0.5891758136
H        1.3862580908   -1.5687362511    1.3106196160
H        2.7703796726   -2.4785409065    0.5978612197
H        0.2820789305   -3.3504929570   -0.0255088946
H        1.4969756902   -3.1318751856   -1.3068405554
23   

C        5.6942940511    1.7499713886    0.0641458421
C        4.8542905914    1.9846063442   -1.0241078165
C        5.3886118034    0.7274360703    0.9619915836
C        3.7135819957    1.1960431672   -1.2138379133
C        4.2471289718   -0.0599003528    0.7702995336
C        3.3840991549    0.1506362763   -0.3256557798
C        1.2336871171   -0.5614678406   -1.4899334504
C        2.1803592564   -0.6780998488   -0.5108310367
C        0.1310736956   -1.5570690789   -1.3065559800
C        1.8152727150   -1.8086268234    0.4413892663
C        0.8611418643   -2.6071632252   -0.4592346395
H        6.5781476711    2.3600062193    0.2126662470
H        5.0848189872    2.7796088408   -1.7240735981
H        6.0354461121    0.5430832600    1.8121711949
H        3.0827378992    1.4058819420   -2.0675624582
H        4.0439014202   -0.8353317297    1.4970274846
H        1.2700727675    0.1423776921   -2.3120551710
H       -0.2374117602   -1.9702473566   -2.2507705619
H       -0.6876968044   -1.1005331485   -0.7406489148
H        1.2888401122   -1.4043418005    1.3119321794
H        2.6674689468   -2.4219047382    0.7488388088
H        0.1882578104   -3.2700946568    0.0938464348
H        1.4719903416   -3.2143113290   -1.1361079231
