64

C      1.59139   -3.18728   -8.78467
C      1.22629   -2.42169   -7.67244
C      1.79925   -4.56392   -8.63874
C      1.06677   -3.02937   -6.42444
C      1.65295   -5.16946   -7.39011
C     -0.79027   -8.32062   -4.85610
C     -1.22238   -6.53894   -6.42687
C     -1.67387   -9.14559   -5.55612
C     -2.09604   -7.36929   -7.12263
C      3.29355   -3.48843   -2.39882
C      2.74040   -3.64090   -3.63670
C     -0.54418   -7.00683   -5.28448
C      1.27918   -4.41110   -6.26612
C     -2.33988   -8.68541   -6.69780
C      0.39150   -6.16708   -4.52191
C      1.11730   -5.05874   -4.95684
C      2.87975   -4.39243   -1.36611
C      1.48571   -5.51743   -2.77254
C      4.20439   -2.15693    2.38444
C      3.38336   -0.88891    2.61061
C      2.06970   -1.39082    3.22981
C     -5.28030  -10.45718   -7.43310
C     -4.74242   -9.02545   -7.70265
C     -3.91000  -10.81478   -6.79347
C      1.95980   -2.84151    2.71919
C     -3.28706   -9.55591   -7.49304
C      3.75066   -4.57742    2.17165
C      3.08016   -5.08653    0.90184
N      0.63279   -6.43563   -3.18761
N      2.02331   -5.36977   -1.53978
N      1.81700   -4.63147   -3.82688
N      3.35366   -3.22947    2.52539
N     -2.67027   -9.81546   -8.80730
O      5.39885   -2.22053    2.11592
O      3.44327   -4.18274   -0.15770
H      1.70968   -2.71642   -9.75698
H      1.05205   -1.35401   -7.77870
H      2.08153   -5.16610   -9.49839
H      0.74522   -2.43513   -5.57234
H      1.81628   -6.23708   -7.27675
H     -0.28442   -8.68129   -3.96615
H     -1.07609   -5.51862   -6.76510
H     -1.84039  -10.15961   -5.20262
H     -2.60108   -6.99911   -8.01077
H      4.03061   -2.72189   -2.19409
H      2.99285   -3.02508   -4.49211
H      3.93634   -0.18102    3.23078
H      3.22546   -0.41967    1.63247
H      2.14700   -1.39284    4.32117
H      1.19819   -0.79271    2.95392
H     -5.47586  -11.01259   -8.35566
H     -6.15939  -10.54367   -6.78938
H     -4.94166   -8.57504   -8.67947
H     -5.03026   -8.32254   -6.91674
H     -3.94738  -10.71362   -5.70537
H     -3.46244  -11.78190   -7.04492
H      1.46724   -3.50788    3.43594
H      1.40152   -2.89224    1.77345
H      3.50438   -5.27004    2.98750
H      4.83571   -4.56257    2.04689
H      1.99093   -5.12436    0.99103
H      3.42697   -6.09682    0.66184
H     -3.27082  -10.43149   -9.35642
H     -1.78951  -10.31190   -8.67055
