28

C      4.33567    0.87397    4.29256
C      4.22269    0.17874    3.08261
C      3.21043    1.02490    5.10744
C      2.99748   -0.36347    2.68708
C      1.98341    0.48395    4.70795
C      1.85969   -0.21255    3.49781
C      0.25320    0.10830    0.74674
C      1.05457   -0.20612   -1.28563
C      0.24853    1.11780   -1.26667
C      0.53001   -2.25835    2.72253
C      0.50111   -0.77089    3.09012
N      1.05554   -0.66478    0.10940
N     -0.16378    0.04101    2.04767
O     -0.33887    1.14653    0.06020
H      5.29227    1.29082    4.59769
H      5.09495    0.05664    2.44484
H      3.28654    1.55853    6.05163
H      2.91240   -0.88817    1.74154
H      1.11191    0.60174    5.35009
H      0.58802   -0.96155   -1.93051
H      2.07901   -0.05631   -1.64242
H      0.87942    2.00561   -1.37455
H     -0.56401    1.15851   -1.99528
H      1.15459   -2.44501    1.84942
H      0.92104   -2.82910    3.57014
H     -0.48346   -2.60573    2.49927
H     -0.15963   -0.66724    3.95700
H     -0.52306    0.92964    2.37638
