36

C      0.07881    2.29233   -2.06224
C      2.14020    2.62111   -3.19269
C     -1.86898    1.18411   -1.08727
C      4.71666    4.78760   -8.86306
C     -1.21288    3.43416   -0.33639
C     -2.91394   -0.80469   -1.99008
C     -2.30447    1.01474   -3.54660
C      3.64505    4.17828   -7.95246
C      4.14407    3.97583   -6.51464
C      3.06471    3.37560   -5.61798
N      0.50290    1.20714   -2.67677
N      1.69369    1.41497   -3.32656
N     -1.10143    2.38048   -1.35637
N     -2.34296    0.52531   -2.17570
O     -2.09790    0.86689    0.07624
O      3.83630    4.64898   -3.35413
S      1.14794    3.69039   -2.21889
S      3.70158    3.23322   -3.88724
H      5.60072    4.14261   -8.92006
H      4.33831    4.92689   -9.88104
H      5.04179    5.76498   -8.48962
H     -1.13410    4.41353   -0.81734
H     -0.44036    3.33748    0.43328
H     -2.18785    3.35028    0.13905
H     -3.97906   -0.80442   -2.25109
H     -2.80376   -1.10166   -0.94902
H     -2.39205   -1.52095   -2.63490
H     -1.51507    0.51886   -4.12014
H     -2.13131    2.09012   -3.56290
H     -3.27454    0.81469   -4.01468
H      2.76150    4.82906   -7.93859
H      3.31428    3.21615   -8.36422
H      5.02558    3.32196   -6.52143
H      4.46243    4.93737   -6.09687
H      2.17646    4.01313   -5.56691
H      2.77358    2.36491   -5.92199
