29   

C        3.1035496182   -1.2030968108    1.7475705293
C        1.4094143902   -1.5964361566    0.0801021654
C        2.2017494128   -0.4164520224    2.4735292796
C        0.5139550829   -0.8075628220    0.8124701002
C        8.6198837639   -4.8922395440    2.0928953829
C        2.7327594007   -1.8046142647    0.5267251272
C        0.9008298657   -0.2086884191    2.0125516106
C        8.7125050305   -5.4066854262    0.8272830150
C        6.8303890096   -4.2771211872    0.5701293979
C        3.7024165726   -2.6399621917   -0.2168134320
C        9.8548955967   -6.2649957051    0.3804650629
C        3.4692370824   -3.0192585591   -1.6609711313
N        7.6922854642   -5.0439777906   -0.0420332237
N        4.7790732871   -3.0445971328    0.4268929720
N        5.7313936163   -3.8343935590   -0.1530658532
S        7.1883004589   -3.9127468797    2.2551144896
Cl      -0.2216722531    0.7730879271    2.9210343899
H        4.1037425400   -1.3357284181    2.1474641743
H        1.0390831947   -2.0530886848   -0.8288102887
H        2.5138338573    0.0377400605    3.4067078538
H       -0.4973292083   -0.6604225603    0.4515276278
H        9.3380627588   -5.0648483051    2.8840648915
H        9.5787552575   -7.3193245123    0.4681294365
H       10.0983058734   -6.0473159113   -0.6632949978
H       10.7387801696   -6.0742344977    0.9956404328
H        4.3787745916   -2.8489490143   -2.2441601439
H        3.2051098937   -4.0786449403   -1.7262216857
H        2.6817316666   -2.4232522412   -2.1245646542
H        5.6920572577   -4.1722179687   -1.1092323070
29   

C        3.1284952971   -1.0459908113    1.6552812826
C        1.3576945428   -1.7893400853    0.1977014330
C        2.2096946314   -0.2686614993    2.3701242705
C        0.4443881078   -1.0091683176    0.9171884095
C        8.6461431356   -4.8701766486    2.0732964872
C        2.7207557983   -1.8210723467    0.5526514399
C        0.8607745041   -0.2415816560    2.0077714009
C        8.7254222804   -5.3854154323    0.8070951460
C        6.8343394612   -4.2658333792    0.5729304676
C        3.7068963046   -2.6279424336   -0.1996191748
C        9.8255471655   -6.3019169506    0.3697768254
C        3.5191343883   -2.9059614776   -1.6734895488
N        7.6836969704   -5.0424242524   -0.0444748826
N        4.7652372691   -3.0595398451    0.4544349992
N        5.7283834675   -3.8245750813   -0.1403560200
S        7.2192563081   -3.8859453493    2.2483843619
Cl      -0.2829202902    0.7289164137    2.9018193655
H        4.1689882980   -1.0428034769    1.9642207053
H        0.9865825104   -2.3816140790   -0.6304197678
H        2.5450591223    0.3198823013    3.2160763902
H       -0.6012706074   -0.9991412195    0.6324405368
H        9.3650658826   -5.0540010854    2.8612488928
H        9.4317651484   -7.0530519326   -0.3207915460
H       10.6042057856   -5.7262857461   -0.1379230291
H       10.2625214242   -6.8121729287    1.2328084763
H        4.4213520010   -2.6238162669   -2.2239331342
H        3.3314137462   -3.9722442536   -1.8286437353
H        2.6870041936   -2.3325158776   -2.0883670117
H        5.6896741623   -4.1501183477   -1.1008369634
29   

C        3.1969415057   -0.8544876347    1.5023057106
C        1.4085632481   -1.9078045410    0.2737030757
C        2.2619441697   -0.0623809420    2.1791455820
C        0.4780706370   -1.1125808541    0.9535894120
C        8.6263773379   -4.9676055162    2.1600455652
C        2.7840038695   -1.7956411955    0.5432406672
C        0.8951406429   -0.1837849316    1.9117121341
C        8.7551843031   -5.4146521109    0.8722084503
C        6.8742067255   -4.2809589046    0.6247773774
C        3.7850856355   -2.6001014474   -0.1946948177
C        9.8717918733   -6.3085237065    0.4298143959
C        3.6586278056   -2.7858355416   -1.6899542826
N        7.7472774563   -5.0249613081    0.0003085072
N        4.8125517311   -3.0628703362    0.4843072990
N        5.7976010148   -3.8011919323   -0.1082151307
S        7.1934729167   -3.9914699137    2.3316716400
Cl      -0.2689345830    0.8059936776    2.7569676152
H        4.2528818776   -0.7408452846    1.7260611255
H        1.0531641792   -2.6220466826   -0.4605381246
H        2.5975481096    0.6541064123    2.9197461295
H       -0.5796215035   -1.2140636519    0.7401753343
H        9.3139454940   -5.1946076269    2.9645419569
H        9.5074700070   -7.0156916955   -0.3207494604
H       10.6731266292   -5.7073182055   -0.0081816587
H       10.2693368721   -6.8709361721    1.2793865469
H        4.5605442855   -2.4194143222   -2.1888038414
H        3.5319351162   -3.8467942933   -1.9234598421
H        2.8023960382   -2.2312942171   -2.0830979319
H        5.7993746345   -4.0747853943   -1.0855449934
29   

C        3.1945945422   -0.6967485437    1.3754722603
C        1.4329128488   -2.0557569591    0.4444382336
C        2.2396048059    0.0834491790    2.0382826386
C        0.4813810469   -1.2722743956    1.1087139102
C        8.5813590307   -5.0958118102    2.1797711504
C        2.8039912446   -1.7845038453    0.5790956423
C        0.8752822633   -0.1970398459    1.9117727952
C        8.7416839106   -5.4695583678    0.8722840923
C        6.8764267436   -4.3069195368    0.6404699141
C        3.8199422704   -2.5680245209   -0.1687465865
C        9.8625633633   -6.3475463817    0.4093534388
C        3.7329049996   -2.6503882328   -1.6765113982
N        7.7607960646   -5.0214181292   -0.0023469037
N        4.8242582134   -3.0710568423    0.5137605019
N        5.8233411849   -3.7781341684   -0.0929882288
S        7.1515344042   -4.1184230673    2.3689907375
Cl      -0.3142922216    0.7790067567    2.7372509772
H        4.2489013577   -0.4633632792    1.4831106617
H        1.1035274013   -2.8821205807   -0.1757149208
H        2.5566064762    0.9150252921    2.6567188825
H       -0.5737900599   -1.4956851606    1.0026791247
H        9.2449512220   -5.3748084937    2.9880323140
H        9.5132331082   -7.0064293029   -0.3906548778
H       10.6809079183   -5.7302095704    0.0290719678
H       10.2314067343   -6.9621971982    1.2353615763
H        4.6316509951   -2.2186360907   -2.1263260047
H        3.6472342975   -3.6951205599   -1.9884662996
H        2.8617785325   -2.0995776267   -2.0424482578
H        5.8517711802   -3.9945726606   -1.0841391260
29   

C        3.1355292131   -0.5266297060    1.1914526255
C        1.5006932072   -2.2121226467    0.6401358884
C        2.1465815967    0.2145302483    1.8494784352
C        0.5143797352   -1.4674457759    1.2982783378
C        8.5144711603   -5.2264856866    2.1985013613
C        2.8251535144   -1.7529678542    0.5870476221
C        0.8277571695   -0.2483108416    1.9086433023
C        8.7153214623   -5.5268624298    0.8777829350
C        6.8720233713   -4.3287074373    0.6509313668
C        3.8697234008   -2.5044761948   -0.1649324797
C        9.8415944395   -6.3914795647    0.4029088092
C        3.8223741245   -2.5064553167   -1.6770567680
N        7.7699289924   -5.0167480092   -0.0019835913
N        4.8397694176   -3.0598863794    0.5245016287
N        5.8509099500   -3.7456644998   -0.0866294741
S        7.0897466809   -4.2432499001    2.3956715751
Cl      -0.4051076196    0.6799258608    2.7256980981
H        4.1536093087   -0.1536807582    1.1532419102
H        1.2374740128   -3.1528886638    0.1692106359
H        2.4005141533    1.1576410921    2.3190947457
H       -0.5048801062   -1.8336436204    1.3374444434
H        9.1469335474   -5.5596450147    3.0111893211
H        9.5122521385   -6.9996747607   -0.4443229421
H       10.6789101377   -5.7641273097    0.0855211667
H       10.1757679369   -7.0564138514    1.2043602561
H        4.7269279767   -2.0414683340   -2.0794912382
H        3.7562113397   -3.5334256452   -2.0472583546
H        2.9519593162   -1.9466711970   -2.0314577840
H        5.9129296249   -3.9042681577   -1.0871412598
29   

C        3.0034815596   -0.3343971224    0.9185717896
C        1.6776434602   -2.3478872502    0.8599658990
C        1.9672035041    0.3257848674    1.5901135595
C        0.6432040097   -1.6842943135    1.5306908117
C        8.3997035491   -5.3778394405    2.2277010278
C        2.8677903795   -1.6776422547    0.5427311068
C        0.7772687465   -0.3415979767    1.8997440789
C        8.6546353420   -5.6114152325    0.9028104467
C        6.8638806177   -4.3391446852    0.6589578710
C        3.9649478917   -2.3725855586   -0.1962605202
C        9.7746815436   -6.4862643566    0.4318840850
C        3.9609854567   -2.3338121619   -1.7087062093
N        7.7697856171   -5.0209069976    0.0104661332
N        4.8802293577   -2.9973672515    0.5077720527
N        5.8994713166   -3.6813397330   -0.0919067671
S        6.9988377124   -4.3587812936    2.4139654045
Cl      -0.5155166575    0.4851458762    2.7330305638
H        3.9211998747    0.1968049923    0.6904356465
H        1.5592607896   -3.3903306064    0.5848867782
H        2.0834616546    1.3643944900    1.8769271434
H       -0.2725332286   -2.2120300231    1.7703055100
H        8.9814624002   -5.7765509613    3.0487047882
H        9.4621395953   -7.0462319647   -0.4540741063
H       10.6404614392   -5.8698515249    0.1752424886
H       10.0593058749   -7.1957001015    1.2140773329
H        4.8804551095   -1.8662666903   -2.0723712713
H        3.8967090474   -3.3497337874   -2.1086505265
H        3.1047888303   -1.7573820574   -2.0711125861
H        6.0066640196   -3.7859532939   -1.0956938670
29   

C        2.9266190872   -0.2049464314    0.7402586567
C        1.8909938711   -2.3438275536    1.1472008151
C        1.9100392332    0.4232367750    1.4702022586
C        0.8763293664   -1.7123768095    1.8763392949
C        8.1357924129   -5.7396625835    2.1602235408
C        2.9194927134   -1.5953817800    0.5557691179
C        0.8740193774   -0.3234362125    2.0410715458
C        8.5361217554   -5.7608976633    0.8509773079
C        6.7643796729   -4.4605386980    0.6168291729
C        4.0163370746   -2.2703719942   -0.1956486169
C        9.7646995371   -6.4807196501    0.3884202945
C        4.0553815740   -2.1532705588   -1.7033692952
N        7.7525282207   -5.0228021358   -0.0261089285
N        4.8574896090   -3.0114417687    0.4886448391
N        5.8799949072   -3.6835278772   -0.1186290055
S        6.6995912755   -4.7715843243    2.3483304776
Cl      -0.3926337378    0.4625895528    2.9504298062
H        3.7280405835    0.3903203968    0.3166402983
H        1.8874239709   -3.4235910878    1.0420980902
H        1.9234331745    1.4988108939    1.6022902051
H        0.0855954476   -2.3023767625    2.3247935424
H        8.6442720218   -6.2462634258    2.9703310919
H        9.4923531368   -7.4716644376    0.0152577836
H       10.2450893881   -5.9175323368   -0.4166899335
H       10.4749171632   -6.5910687390    1.2127734990
H        5.0062440891   -1.7152065480   -2.0196963198
H        3.9516208845   -3.1429242027   -2.1574650418
H        3.2387087352   -1.5167954228   -2.0562252881
H        6.0855869976   -3.6390369482   -1.1114847861
29   

C        2.7504928152   -0.1970145339    0.5370552073
C        2.0605863433   -2.3657431628    1.3334581019
C        1.7154595160    0.3975743614    1.2692188664
C        1.0273889519   -1.7671714780    2.0640856870
C        8.0294189843   -5.8618740616    2.1408786005
C        2.9241458514   -1.5903818988    0.5431104580
C        0.8423714790   -0.3813955502    2.0353432021
C        8.4921621855   -5.8096162129    0.8532296729
C        6.7413139106   -4.4825927227    0.6121124569
C        4.0504625404   -2.2175130858   -0.1945211894
C        9.7373511565   -6.5115605628    0.4079545328
C        4.1629668036   -2.0243869921   -1.6904131478
N        7.7559436481   -5.0145858736   -0.0150523906
N        4.8520470161   -3.0109658746    0.4805369755
N        5.8975446015   -3.6560358855   -0.1169196482
S        6.5912251787   -4.8944624814    2.3170994213
Cl      -0.4465386012    0.3635127907    2.9480359860
H        3.4246885395    0.4294678284   -0.0364583379
H        2.2005800505   -3.4407356607    1.3818227813
H        1.5879872451    1.4736481156    1.2513664475
H        0.3659582420   -2.3800321327    2.6652332963
H        8.4956362178   -6.4193840403    2.9429415915
H        9.4776651435   -7.4774990788   -0.0335492532
H       10.2579008821   -5.9073062990   -0.3404236564
H       10.4075203227   -6.6741843997    1.2568138106
H        5.1228788934   -1.5612504392   -1.9357817243
H        4.0954104080   -2.9911115732   -2.1977306851
H        3.3568074017   -1.3817269253   -2.0555697080
H        6.1519617715   -3.5526067605   -1.0939534756
29   

C        2.5840723532   -0.2594293576    0.3842318107
C        2.1942482872   -2.3597322291    1.5005114934
C        1.5297577849    0.3148048609    1.1051688561
C        1.1414797016   -1.7811023856    2.2188627796
C        7.9538335914   -5.9770891251    2.1176686603
C        2.9221799324   -1.6121161030    0.5576784838
C        0.7968751810   -0.4404410271    2.0254369162
C        8.4671568520   -5.8575278639    0.8538747828
C        6.7251309971   -4.5188470784    0.6135191673
C        4.0617295866   -2.2114743719   -0.1742817620
C        9.7297872387   -6.5361740940    0.4217694319
C        4.2462227872   -1.9359550012   -1.6495133009
N        7.7647216032   -5.0175377828    0.0000842380
N        4.8396507184   -3.0420066637    0.4859496860
N        5.9089027263   -3.6549768111   -0.1034418980
S        6.5082062510   -5.0195699757    2.2872895519
Cl      -0.5161064453    0.2800019310    2.9233368372
H        3.1445144816    0.3589138317   -0.3079299056
H        2.4517155846   -3.3991675464    1.6772536067
H        1.2776668596    1.3584376359    0.9574976423
H        0.5887524227   -2.3745367294    2.9377591679
H        8.3888052505   -6.5763446837    2.9070898431
H        9.4887396882   -7.4764255173   -0.0814537032
H       10.2796084488   -5.8931227933   -0.2713025938
H       10.3653650121   -6.7455101848    1.2868408625
H        5.1986205532   -1.4247404295   -1.8162804051
H        4.2476855012   -2.8769918342   -2.2072070916
H        3.4359112114   -1.3115844402   -2.0353787063
H        6.2025067149   -3.4980516951   -1.0621870832
29   

C        2.4325338196   -0.3423954475    0.2529355462
C        2.3247520568   -2.3078158703    1.6403792106
C        1.3612654129    0.2120848007    0.9646389367
C        1.2547401300   -1.7488624866    2.3483119618
C        7.8819730983   -6.0805047382    2.0832405897
C        2.9281775610   -1.6189496408    0.5693049311
C        0.7609120441   -0.4855623510    2.0156760823
C        8.4417421761   -5.9029665038    0.8462456649
C        6.7106584061   -4.5503646729    0.6049352194
C        4.0705077969   -2.2061535077   -0.1653726598
C        9.7187137361   -6.5641382971    0.4294665128
C        4.3228451297   -1.8549009390   -1.6136882773
N        7.7720201111   -5.0219740404    0.0076281962
N        4.8306780934   -3.0666682521    0.4792773568
N        5.9209441694   -3.6523160256   -0.0995923980
S        6.4317779983   -5.1284173719    2.2443252627
Cl      -0.5735367759    0.2112754960    2.9004725657
H        2.8795337165    0.2475921529   -0.5384150369
H        2.6875391579   -3.2895881598    1.9277511525
H        0.9919531979    1.1976757776    0.7062196187
H        0.8037962351   -2.2985224834    3.1662560650
H        8.2869612070   -6.7175367508    2.8589218523
H        9.4953475315   -7.4805780616   -0.1234023861
H       10.2931204335   -5.8919881705   -0.2143028477
H       10.3229930651   -6.8130505841    1.3064013578
H        5.2465463094   -1.2754570171   -1.6990488988
H        4.4248782963   -2.7685357780   -2.2065124277
H        3.4979606206   -1.2784907926   -2.0387322471
H        6.2502147448   -3.4487540646   -1.0377503992
29   

C        2.5516747244   -0.0660144021    0.8413084550
C        2.1134854671   -2.3680644395    1.3863078688
C        1.7248642649    0.3339872175    1.8990291036
C        1.2891261469   -1.9622127095    2.4414995051
C        5.7510062235   -7.3190758065   -1.1786917495
C        2.7611230709   -1.4265233467    0.5566655755
C        1.0851107547   -0.6076958898    2.7070391735
C        6.4006120114   -6.7057489217   -2.2164530973
C        5.2573744628   -4.9610213956   -1.4862466860
C        3.6282788696   -1.8676322497   -0.5591567609
C        7.3909845241   -7.4135980953   -3.0880192952
C        4.0616311173   -0.9102166669   -1.6450817028
N        6.1198796595   -5.3562634328   -2.3837322280
N        4.0199606398   -3.1259530670   -0.5634162985
N        4.8633385096   -3.6304371449   -1.5127869363
S        4.7125263939   -6.1913558671   -0.3508534763
Cl       0.0571628004   -0.1014355423    4.0247061569
H        3.0355310030    0.7173352713    0.2723777766
H        2.2431343123   -3.4318918069    1.2147929551
H        1.5794144984    1.3884643850    2.1028186288
H        0.8025956191   -2.7058078058    3.0618943810
H        5.8706159698   -8.3589552823   -0.9032715373
H        6.8980722487   -7.7571424711   -4.0014845580
H        8.2032465987   -6.7325002205   -3.3572863267
H        7.8136663226   -8.2750980224   -2.5633375598
H        5.1110394802   -0.6381316790   -1.5002896227
H        3.9552229917   -1.3832234094   -2.6255673828
H        3.4537532983   -0.0045947459   -1.6687901470
H        5.2900743275   -3.0799020375   -2.2508654755
29   

C        2.3237398333   -0.0866313973    0.6461110515
C        2.3095859877   -2.3330388128    1.5024690349
C        1.4352989821    0.2940095875    1.6608210265
C        1.4228729294   -1.9456657425    2.5124917955
C        5.6937219077   -7.3486252938   -1.1862345084
C        2.7842542972   -1.4107702184    0.5405130985
C        0.9767248033   -0.6281456351    2.6018121682
C        6.3688486366   -6.7427229033   -2.2119927100
C        5.3038112481   -4.9652925810   -1.4435166028
C        3.7223105480   -1.8444774327   -0.5209381216
C        7.3218659081   -7.4763272535   -3.1036594717
C        4.2523150168   -0.8930025920   -1.5680491953
N        6.1491589515   -5.3786230444   -2.3491231651
N        4.0927139801   -3.1098757402   -0.5242288669
N        4.9621874191   -3.6200887066   -1.4470849392
S        4.7068552484   -6.1939246072   -0.3327624609
Cl      -0.1301763478   -0.1429896203    3.8622322870
H        2.6198476070    0.7009910410   -0.0305638474
H        2.6257128137   -3.3709188085    1.4776085346
H        1.0940806193    1.3208693605    1.7225701765
H        1.0769563495   -2.6755213084    3.2351287264
H        5.7659886618   -8.3988220773   -0.9344778085
H        6.8061103264   -7.7880228956   -4.0159918121
H        8.1570340471   -6.8237001156   -3.3732950635
H        7.7159621100   -8.3607527326   -2.5951735344
H        5.3424032413   -0.8412243415   -1.4926092987
H        3.9954995818   -1.2687453392   -2.5628404493
H        3.8689064536    0.1214800791   -1.4963910217
H        5.4044171384   -3.0752678161   -2.1802722911
29   

C        2.0925954732   -0.1962426710    0.4886399674
C        2.4660839939   -2.2666189990    1.6558841007
C        1.1485215536    0.1703821938    1.4564821974
C        1.5218395415   -1.8948744969    2.6191624576
C        5.6649306591   -7.3363338178   -1.2459189197
C        2.7776713247   -1.4210588956    0.5685505681
C        0.8553805898   -0.6722900740    2.5301977681
C        6.3514901896   -6.7158384284   -2.2551932266
C        5.3426582466   -4.9353897280   -1.4206877331
C        3.7812420112   -1.8232405119   -0.4427294970
C        7.2730824261   -7.4474080871   -3.1808676076
C        4.3652058702   -0.8227846618   -1.4131727084
N        6.1721391988   -5.3418064050   -2.3439709798
N        4.1409075356   -3.0908014484   -0.4709179515
N        5.0337907018   -3.5827695472   -1.3807892233
S        4.7173182668   -6.1831023841   -0.3473766728
Cl      -0.3238543221   -0.2090558911    3.7318809217
H        2.2507357122    0.4943902426   -0.3295251158
H        2.9614242940   -3.2261436703    1.7649077894
H        0.6296408876    1.1183125159    1.3740227382
H        1.3028168215   -2.5620938767    3.4446211877
H        5.7063097731   -8.3964060039   -1.0313416085
H        6.7406458303   -7.7071289543   -4.0999185115
H        8.1281039517   -6.8138232469   -3.4329840967
H        7.6398673514   -8.3632481444   -2.7088963666
H        5.4492835034   -0.9525969925   -1.4781750657
H        3.9346161124   -0.9777236267   -2.4065851599
H        4.1938807300    0.2087721407   -1.1022946176
H        5.4804553737   -3.0277539743   -2.1035386705
29   

C        1.9062605249   -0.2971349334    0.3442880173
C        2.5575166309   -2.1525010126    1.7347213300
C        0.9396335537    0.0656740485    1.2906440822
C        1.5898497772   -1.7855812115    2.6767989295
C        5.6950332605   -7.3023658907   -1.2517384794
C        2.7426732884   -1.4071612947    0.5531882423
C        0.7740036562   -0.6719283122    2.4655273334
C        6.3763687464   -6.6718664849   -2.2583598538
C        5.3241309936   -4.9094300560   -1.4391527339
C        3.7547389855   -1.8085589353   -0.4487221090
C        7.2618243941   -7.4001850549   -3.2211912578
C        4.4070082073   -0.7809911037   -1.3451221020
N        6.1554583647   -5.3052209484   -2.3654044558
N        4.0862601972   -3.0818097526   -0.5018857349
N        4.9960591109   -3.5612793324   -1.4013915874
S        4.7279054925   -6.1629830331   -0.3562476903
Cl      -0.4338451577   -0.2158197484    3.6412261565
H        1.9802279498    0.2926302094   -0.5617134854
H        3.1716966290   -3.0264374760    1.9273157617
H        0.3038087085    0.9251441335    1.1128820857
H        1.4675428358   -2.3716808608    3.5801467343
H        5.7425224266   -8.3635094150   -1.0438313040
H        7.1818716108   -6.9493943437   -4.2144441141
H        8.3004974482   -7.3378449075   -2.8854922123
H        6.9693734953   -8.4519420184   -3.2875939704
H        5.4952945061   -0.8792539374   -1.2945971349
H        4.0877240209   -0.9356819587   -2.3797187985
H        4.1551893185    0.2375904237   -1.0410857929
H        5.4513735551   -2.9974256486   -2.1118530253
29   

C        1.7822378618   -0.4242069420    0.2297570962
C        2.6811494854   -2.0083719838    1.8082590829
C        0.7978320231   -0.0637345219    1.1582324846
C        1.6950694148   -1.6448026090    2.7327273635
C        5.5965512122   -7.3204353662   -1.3379870226
C        2.7515270176   -1.3907701377    0.5467547359
C        0.7470924006   -0.6670367204    2.4183269461
C        6.3394092961   -6.6762818635   -2.2909794406
C        5.2957336703   -4.9135816364   -1.4614180483
C        3.7694402211   -1.8021769389   -0.4472620673
C        7.2491086671   -7.3968479064   -3.2368941286
C        4.4936446477   -0.7595532068   -1.2687349946
N        6.1585557637   -5.3014252211   -2.3619037623
N        4.0665438126   -3.0817577713   -0.5199764600
N        5.0015543805   -3.5587672783   -1.3944336876
S        4.6187449091   -6.1849332325   -0.4491777122
Cl      -0.4830207630   -0.2155693010    3.5725310392
H        1.7821564808    0.0493278517   -0.7455878090
H        3.3985605124   -2.7794712014    2.0703272177
H        0.0594284121    0.6866934887    0.9010462553
H        1.6597587492   -2.1284785241    3.7018988213
H        5.6070598325   -8.3886778353   -1.1640891980
H        7.2326607756   -6.9073668576   -4.2147991596
H        8.2711680270   -7.3807428173   -2.8488766367
H        6.9281865802   -8.4353584315   -3.3578523451
H        5.5727043350   -0.8430567677   -1.1098928280
H        4.2801072720   -0.9086643862   -2.3309887063
H        4.1834111701    0.2489893614   -0.9824861733
H        5.5053888265   -2.9856992398   -2.0635890306
29   

C        1.6701449596   -0.5938102025    0.1485782222
C        2.8006292777   -1.8317746677    1.8815290547
C        0.6669971530   -0.2407793318    1.0595964302
C        1.7954955275   -1.4767236897    2.7888570281
C        5.4989239673   -7.3299994867   -1.4341851746
C        2.7624172527   -1.3778752743    0.5533502181
C        0.7223637240   -0.6747700195    2.3879842801
C        6.3013874287   -6.6756474483   -2.3301607928
C        5.2770547645   -4.9118220808   -1.4791032058
C        3.8015750236   -1.7925242901   -0.4233856540
C        7.2277366948   -7.3902178766   -3.2643757330
C        4.5946035282   -0.7368428138   -1.1611385888
N        6.1659036133   -5.2939905532   -2.3564449420
N        4.0616339281   -3.0768665275   -0.5262994238
N        5.0212851771   -3.5515439757   -1.3747465507
S        4.5188078844   -6.1969239830   -0.5448962628
Cl      -0.5309061286   -0.2335892016    3.5210592252
H        1.5966878522   -0.2587378370   -0.8801442126
H        3.6165244044   -2.4697446466    2.2053469767
H       -0.1677826896    0.3701396673    0.7364487039
H        1.8421213123   -1.8308458101    3.8120327031
H        5.4690609685   -8.4036641300   -1.3006379756
H        7.2698405618   -6.8635617626   -4.2219887799
H        8.2318548285   -7.4238217032   -2.8330751122
H        6.8788060079   -8.4117850912   -3.4398272080
H        5.6568418785   -0.8295203240   -0.9171146161
H        4.4664562419   -0.8600729737   -2.2402691423
H        4.2575124510    0.2641391457   -0.8771461818
H        5.5725299729   -2.9712952053   -1.9988156901
29   

C        1.5738173093   -0.8245973682    0.0642534545
C        2.8953146209   -1.5926247994    1.9288131338
C        0.5486252260   -0.4584047830    0.9450250780
C        1.8682689182   -1.2253159474    2.8064101787
C        5.3814039869   -7.3487718044   -1.5734535481
C        2.7670216958   -1.3807728306    0.5480870660
C        0.6877551383   -0.6513012501    2.3235008318
C        6.2488366573   -6.6875208058   -2.4011881587
C        5.2521755103   -4.9240711716   -1.5170315689
C        3.8483878308   -1.7989052280   -0.3897328649
C        7.1902762200   -7.3960685572   -3.3248462597
C        4.7045268840   -0.7374621044   -1.0444716605
N        6.1664622485   -5.3017584086   -2.3698954815
N        4.0608634074   -3.0862388876   -0.5398468882
N        5.0426115439   -3.5605921828   -1.3627019696
S        4.4033975897   -6.2184492594   -0.6784340349
Cl      -0.5920844098   -0.1932709904    3.4195837265
H        1.4412451554   -0.6788689445   -1.0021704821
H        3.7982669140   -2.0515206828    2.3174502577
H       -0.3671631426   -0.0252150389    0.5601030130
H        1.9820889251   -1.3910993014    3.8713191335
H        5.3052489144   -8.4252633938   -1.4907678162
H        7.2944905827   -6.8309270622   -4.2553899576
H        8.1719933795   -7.4860922110   -2.8520723398
H        6.8131653238   -8.3952552293   -3.5605599498
H        5.7483987283   -0.8609128625   -0.7420251783
H        4.6376381419   -0.8222477003   -2.1327901515
H        4.3673845787    0.2596301608   -0.7466335665
H        5.6456105958   -2.9758084476   -1.9322868066
29   

C        1.5613619961   -1.0618340796    0.1393338493
C        3.0559647289   -1.2965201631    2.0166981593
C        0.5459934147   -0.6347825947    1.0038620456
C        2.0388043095   -0.8682552527    2.8782198394
C        5.0980204112   -7.3557213361   -1.8985163072
C        2.8286965820   -1.3933844943    0.6363144241
C        0.7758316776   -0.5313760457    2.3799519628
C        6.1297813983   -6.7054873321   -2.5210557297
C        5.1478010280   -4.9439216037   -1.6168848320
C        3.9189654320   -1.8241890141   -0.2901936870
C        7.1957132300   -7.4211590391   -3.2912778445
C        4.8340175014   -0.7719456378   -0.8776584857
N        6.1573699205   -5.3276685056   -2.3514004857
N        4.0389136798   -3.1070756706   -0.5423969391
N        5.0280927298   -3.5863700296   -1.3536342456
S        4.0753993942   -6.2229961364   -1.0578123269
Cl      -0.4903972749    0.0060707776    3.4555825469
H        1.3645393475   -1.1406300140   -0.9243746402
H        4.0282584667   -1.5581070898    2.4199253512
H       -0.4307830573   -0.3819067729    0.6083330855
H        2.2260149085   -0.7965985350    3.9432640838
H        4.9412188306   -8.4264780629   -1.9173275449
H        6.9517982860   -7.4078532259   -4.3569843108
H        8.1592264424   -6.9259028614   -3.1411709444
H        7.2775057574   -8.4587941508   -2.9554785407
H        5.8671217714   -0.9629797933   -0.5737100018
H        4.7750439118   -0.7935856154   -1.9695989762
H        4.5417978824    0.2225972433   -0.5281339964
H        5.7462988882   -3.0115621629   -1.7823526366
29   

C        1.5517503003   -1.4138460068    0.2083646926
C        3.0730734146   -0.9840270843    2.0299813264
C        0.4851172244   -0.9630955088    0.9954172604
C        2.0038544197   -0.5330488981    2.8134995202
C        5.0096545879   -7.3234842389   -2.0642920127
C        2.8566745827   -1.4376884628    0.7203230245
C        0.7010319339   -0.5184339910    2.3041089173
C        6.0846007595   -6.6791110845   -2.6157807314
C        5.1454418344   -4.9376181775   -1.6309123726
C        3.9945139527   -1.8595807158   -0.1449185505
C        7.1447520881   -7.3899473726   -3.3983089453
C        4.9367950362   -0.8033812494   -0.6791110319
N        6.1610207624   -5.3165851258   -2.3595510214
N        4.0738118706   -3.1277972175   -0.4767564500
N        5.0702796729   -3.5952630937   -1.2858905219
S        4.0066028608   -6.2034025577   -1.1840783942
Cl      -0.6299561221    0.0478161701    3.2823676119
H        1.3682465057   -1.7544993025   -0.8052030837
H        4.0766423864   -0.9838026526    2.4410103538
H       -0.5202063504   -0.9562737306    0.5907476177
H        2.1814193050   -0.1891046620    3.8257733155
H        4.8121816494   -8.3838923326   -2.1537620026
H        6.9246411018   -7.3175863384   -4.4668204227
H        8.1195019168   -6.9332899278   -3.2046674194
H        7.1873264560   -8.4446009846   -3.1119042561
H        5.9602740208   -1.0204876846   -0.3605994174
H        4.9005168658   -0.7891459630   -1.7722100389
H        4.6527437370    0.1845653500   -0.3051349437
H        5.8237382155   -3.0244555565   -1.6553547142
29   

C        1.5734138330   -1.6549796411    0.2956960588
C        3.0681684395   -0.7371114646    1.9512019151
C        0.4762250364   -1.2065255865    1.0407443808
C        1.9677770198   -0.2899192967    2.6926018815
C        4.9248679418   -7.2829213217   -2.1787182297
C        2.8841721437   -1.4364733401    0.7476348019
C        0.6628428869   -0.5209341858    2.2454060172
C        6.0451887117   -6.6616803395   -2.6623067995
C        5.1346881954   -4.9224415379   -1.6470945466
C        4.0419314028   -1.8614908119   -0.0795509985
C        7.1079661048   -7.3842664833   -3.4303658080
C        5.0412538034   -0.8269699491   -0.5473965324
N        6.1634792160   -5.3139281991   -2.3500540043
N        4.0872852874   -3.1177259029   -0.4634139605
N        5.0964995117   -3.5922831871   -1.2524479511
S        3.9307286849   -6.1575702792   -1.2950940595
Cl      -0.7070387532    0.0398431174    3.1717535932
H        1.4101313092   -2.1833172878   -0.6380148404
H        4.0707702192   -0.5431254847    2.3160588782
H       -0.5303510692   -1.3900537673    0.6835413414
H        2.1222442090    0.2427235654    3.6237160786
H        4.6907663276   -8.3305350527   -2.3172111733
H        6.9332215328   -7.2641613357   -4.5029534330
H        8.0908044289   -6.9735237764   -3.1823863273
H        7.0993853193   -8.4495760301   -3.1830369500
H        6.0404237499   -1.0824484474   -0.1833735356
H        5.0599316867   -0.7937408956   -1.6405740203
H        4.7717925237    0.1649791262   -0.1737767147
H        5.8863575653   -3.0382608431   -1.5674365280
29   

C        1.6171136347   -1.8208713071    0.4035976886
C        3.0576184971   -0.5343238120    1.8482597886
C        0.5032509971   -1.3869786427    1.1321672928
C        1.9397941613   -0.1034158504    2.5729853960
C        4.8418288719   -7.2307579595   -2.2737880390
C        2.9136934256   -1.4067286714    0.7549840386
C        0.6537324838   -0.5252299589    2.2226548704
C        6.0039735524   -6.6419004893   -2.6952546188
C        5.1249740722   -4.8977881125   -1.6608579038
C        4.0806579251   -1.8407763793   -0.0473040898
C        7.0654355758   -7.3839616544   -3.4463704905
C        5.1489215952   -0.8440212651   -0.4366326053
N        6.1639358766   -5.3101655796   -2.3363235887
N        4.0991608347   -3.0873586563   -0.4675208397
N        5.1227030513   -3.5793411787   -1.2270233586
S        3.8598815544   -6.0924039301   -1.3931917324
Cl      -0.7374469015    0.0149741126    3.1292904417
H        1.4747343792   -2.4885462150   -0.4401615094
H        4.0421915877   -0.1929435934    2.1476524294
H       -0.4886436965   -1.7208833573    0.8508743259
H        2.0661286438    0.5641417229    3.4173571940
H        4.5715577822   -8.2631835592   -2.4541892784
H        6.9372046258   -7.2231674526   -4.5202084282
H        8.0538348263   -7.0225920581   -3.1486407642
H        7.0040460112   -8.4551995962   -3.2347041987
H        6.1084464916   -1.1386248848   -0.0022012527
H        5.2491391221   -0.8110661491   -1.5254115713
H        4.8945611074    0.1601479204   -0.0871247382
H        5.9459080214   -3.0483168778   -1.4923102409
29   

C        1.6594230187   -1.9602811568    0.5259989799
C        3.0169009888   -0.3770498819    1.7360611462
C        0.5367056713   -1.5495755674    1.2541765739
C        1.8894170629    0.0288525933    2.4602587813
C        4.7739596777   -7.1695799309   -2.3793308906
C        2.9227413522   -1.3801659598    0.7512358250
C        0.6402507588   -0.5514070774    2.2260712250
C        5.9780238478   -6.6167276558   -2.7251810678
C        5.1154487393   -4.8668306748   -1.6867507702
C        4.0968534930   -1.8178811448   -0.0356499507
C        7.0468545940   -7.3802598505   -3.4436044060
C        5.2280385839   -0.8607286212   -0.3340763512
N        6.1708247632   -5.3024363257   -2.3208827893
N        4.0986072015   -3.0531319614   -0.4919759908
N        5.1400623607   -3.5614270841   -1.2156575064
S        3.7932013685   -6.0167299835   -1.5165043484
Cl      -0.7622193536   -0.0415529309    3.1329009431
H        1.5424897035   -2.7380761013   -0.2219603077
H        3.9683935916    0.0890187031    1.9635368589
H       -0.4260063212   -2.0099157766    1.0650685510
H        1.9805374690    0.7996768591    3.2166385725
H        4.4734494572   -8.1850988508   -2.6027720509
H        6.9859069643   -7.1779365558   -4.5163460174
H        8.0316622124   -7.0738372000   -3.0797198473
H        6.9277145935   -8.4541677575   -3.2743215901
H        6.1325970432   -1.1807126149    0.1909473559
H        5.4312577413   -0.8473757034   -1.4088358764
H        4.9819251941    0.1600353847   -0.0326202356
H        5.9954226237   -3.0556477413   -1.4219323698
29   

C        1.7214130773   -2.0872880607    0.6633168289
C        2.9509881874   -0.2399091719    1.6037913548
C        0.5889487250   -1.6977836414    1.3878218188
C        1.8130204962    0.1426231385    2.3243526634
C        4.7133423990   -7.1099033760   -2.4877522553
C        2.9282127725   -1.3613675554    0.7464252832
C        0.6224757795   -0.5791745901    2.2220837818
C        5.9541540085   -6.5965321549   -2.7559769527
C        5.1058104180   -4.8407769950   -1.7158226357
C        4.1126750862   -1.8012238488   -0.0246090483
C        7.0295636223   -7.3830886121   -3.4388539304
C        5.3029071174   -0.8940093406   -0.2340282901
N        6.1755074693   -5.3015404930   -2.3066225718
N        4.0989032217   -3.0230802805   -0.5190195185
N        5.1550179794   -3.5501585801   -1.2075248128
S        3.7335559294   -5.9415312766   -1.6448982935
Cl      -0.7923964486   -0.0965334390    3.1245462731
H        1.6456024446   -2.9641715192    0.0283092016
H        3.8493543838    0.3469841230    1.7461386548
H       -0.3272635828   -2.2704164757    1.3032295748
H        1.8514390309    1.0069253691    2.9771366502
H        4.3863732685   -8.1066811251   -2.7542943600
H        7.0384408522   -7.1451346473   -4.5059581608
H        8.0038260498   -7.1310001233   -3.0105726761
H        6.8565614275   -8.4555722042   -3.3124441011
H        6.1480355422   -1.2495291220    0.3623657478
H        5.5929573702   -0.8972196370   -1.2887448912
H        5.0872023074    0.1419126570    0.0315020284
H        6.0386705705   -3.0731393787   -1.3544113729
29   

C        1.8203703882   -2.2238510969    0.9047885438
C        2.8406084640   -0.1130714201    1.4469936512
C        0.6603740095   -1.8349767118    1.5842425361
C        1.6755521729    0.2672554411    2.1244891608
C        4.7058897591   -7.0544249196   -2.5561944572
C        2.9452913146   -1.3747898125    0.8137165683
C        0.5759622783   -0.5869688910    2.1998597426
C        5.9607989768   -6.5557416162   -2.7834269597
C        5.1312106561   -4.8288646087   -1.6816798028
C        4.1542549362   -1.8260670897    0.0859375352
C        7.0302657143   -7.3334969745   -3.4854283913
C        5.3867781581   -0.9620058969   -0.0444295951
N        6.2010634062   -5.2863429826   -2.2747128194
N        4.1309385734   -3.0313414775   -0.4486928940
N        5.1968344792   -3.5612605572   -1.1201712830
S        3.7364711659   -5.9033502630   -1.6782668817
Cl      -0.8727938921   -0.1041861365    3.0467824083
H        1.8260301351   -3.2072409012    0.4459137818
H        3.6422640068    0.6112591090    1.4424233744
H       -0.1856404398   -2.5104389989    1.6345922136
H        1.6204945320    1.2393017755    2.6007094348
H        4.3630578090   -8.0315106513   -2.8713026540
H        7.0575414670   -7.0511988964   -4.5413711241
H        8.0033818237   -7.1182809234   -3.0350165416
H        6.8355602315   -8.4068016971   -3.4065811875
H        6.2346004592   -1.4616475782    0.4332705388
H        5.6224321689   -0.8205993468   -1.1033143052
H        5.2872376922    0.0249249762    0.4016101758
H        6.0899260469   -3.0938072956   -1.2378140367
