29   
Generated by ForceBalance from scan.xyz: Frame 1 of 24
C       -2.2578382623   -0.0150069253    1.3644688078
C       -3.1392937835   -0.7067966095    2.1654273420
C       -0.9113941651   -0.4385533644    1.3244235183
C       -2.6143739437   -1.8028661655    2.8796372979
C       -0.2055823540    1.0785835265   -0.6977839896
C        0.4169278160   -0.2870815282   -0.9024279435
C        0.1579655470    0.2290546825    0.5016262409
C       -0.3491962186   -1.4007714877   -3.0403885437
C       -2.8776827932   -3.3907423688    4.6313823510
C       -0.3890481575   -1.4183800165   -1.5070341505
N       -0.4835942912   -1.4678006714    2.0611816109
N       -1.3310458879   -2.1487999762    2.8431524805
N        1.3521938382    0.6453023949    1.2172505228
O       -3.4670559154   -2.5013865737    3.6643399644
H       -2.5821582512    0.8478649210    0.7915578318
H       -4.1876189057   -0.4422848772    2.2642275190
H        0.4071517207    1.9582208538   -0.8654528330
H       -1.2519245336    1.1895254475   -0.9693718344
H        1.4718770489   -0.2791283154   -1.1674217242
H       -0.7527391692   -0.4602259460   -3.4318486424
H       -0.9357811442   -2.2237794305   -3.4628285584
H        0.6780510851   -1.4986289782   -3.4092498105
H       -3.7167362345   -3.7694682992    5.2160389292
H       -2.1748290022   -2.8498133478    5.2710611555
H       -2.3505791986   -4.2111921482    4.1387611945
H       -0.0037638561   -2.3752251782   -1.1330798250
H       -1.4302450591   -1.3581465926   -1.1689265396
H        1.7157952920   -0.1645810057    1.7206293450
H        1.0972195106    1.3325604137    1.9273116570
29   
Generated by ForceBalance from scan.xyz: Frame 2 of 24
C       -2.2526313406   -0.0747258938    1.3626044061
C       -3.1355941590   -0.7931484690    2.1408458956
C       -0.9089774984   -0.4999089663    1.3077167601
C       -2.6165092682   -1.9189123003    2.8083028201
C       -0.2000912272    1.0736356475   -0.6685547922
C        0.4235294261   -0.2853686299   -0.9104111871
C        0.1620027548    0.1909660619    0.5071625224
C       -0.3369226143   -1.3391394491   -3.0803271301
C       -2.8949696617   -3.3204304356    4.7097273710
C       -0.3802955329   -1.3998837933   -1.5481735453
N       -0.4818647185   -1.5522703860    2.0149230636
N       -1.3305567591   -2.2581124501    2.7697039512
N        1.3546109335    0.5866051931    1.2368447830
O       -3.4669423011   -2.6495303046    3.5705488340
H       -2.5735180397    0.8120749237    0.8252739316
H       -4.1820001731   -0.5268169447    2.2534594497
H        0.4122566330    1.9580210789   -0.8106952375
H       -1.2462007540    1.1912744093   -0.9382191897
H        1.4790245844   -0.2691952557   -1.1728420366
H       -0.7403389963   -0.3882703149   -3.4461413322
H       -0.9218771985   -2.1503943971   -3.5270047425
H        0.6912516858   -1.4258533821   -3.4493892089
H       -3.7465629469   -3.6987827724    5.2765771325
H       -2.3163459394   -2.6154892425    5.3143523639
H       -2.2464024457   -4.1424118914    4.3989221923
H        0.0048667033   -2.3665585819   -1.2003607911
H       -1.4223095526   -1.3498060064   -1.2109402353
H        1.7181924373   -0.2373423193    1.7168293567
H        1.0984542499    1.2531010316    1.9659842825
29   
Generated by ForceBalance from scan.xyz: Frame 3 of 24
C       -2.2496514655   -0.1397027068    1.3524292902
C       -3.1278303333   -0.8826425922    2.1165597405
C       -0.9056156369   -0.5550858393    1.2877864778
C       -2.6035312816   -2.0206224058    2.7538360708
C       -0.2059957947    1.0704536321   -0.6491643340
C        0.4164016712   -0.2815275510   -0.9295069466
C        0.1611934103    0.1574947859    0.5015361591
C       -0.3540216620   -1.2764091406   -3.1234703382
C       -2.9490133604   -3.2043028023    4.7840912760
C       -0.3896727451   -1.3790772681   -1.5933556883
N       -0.4709209042   -1.6222451012    1.9723540813
N       -1.3144875110   -2.3505319325    2.7070355934
N        1.3568732234    0.5333654730    1.2362333348
O       -3.4452052075   -2.7880344149    3.4972636404
H       -2.5765090433    0.7573504282    0.8360438795
H       -4.1757156829   -0.6253206608    2.2361200339
H        0.4057438030    1.9583396752   -0.7705032918
H       -1.2532412741    1.1952624882   -0.9110130994
H        1.4709494174   -0.2584088292   -1.1951569439
H       -0.7604438540   -0.3164662931   -3.4611706416
H       -0.9402716662   -2.0759739601   -3.5890670021
H        0.6723700895   -1.3516886170   -3.4998918403
H       -3.7875445411   -3.7016794396    5.2732176418
H       -2.6383210392   -2.3310903029    5.3681039251
H       -2.1069872937   -3.8916032769    4.6786877850
H       -0.0017866815   -2.3544708086   -1.2741403207
H       -1.4300650384   -1.3394589767   -1.2498470005
H        1.7228174020   -0.3028876960    1.6924972479
H        1.1045096011    1.1807702829    1.9836316581
29   
Generated by ForceBalance from scan.xyz: Frame 4 of 24
C       -2.2347671559   -0.2175911952    1.3541254348
C       -3.1009958312   -0.9875270029    2.1083428017
C       -0.8885990085   -0.6176066202    1.2755382264
C       -2.5627549182   -2.1303861936    2.7200819602
C       -0.2080392858    1.0639284669   -0.6210932351
C        0.4123406505   -0.2790218662   -0.9451585099
C        0.1693878961    0.1191471544    0.5002267265
C       -0.3753239785   -1.2111689138   -3.1603235474
C       -3.0251032714   -3.0942447339    4.8318698471
C       -0.3984939405   -1.3578386433   -1.6335551059
N       -0.4400294137   -1.6989165989    1.9325564890
N       -1.2716739695   -2.4511463188    2.6534495588
N        1.3709998151    0.4744845250    1.2351076430
O       -3.3854290772   -2.9416558315    3.4465849148
H       -2.5747103919    0.6839163401    0.8542346405
H       -4.1520394837   -0.7462431934    2.2342404607
H        0.4023261080    1.9552905943   -0.7219747605
H       -1.2573919321    1.1957228563   -0.8706216329
H        1.4647780336   -0.2479245258   -1.2182137890
H       -0.7852775168   -0.2423799838   -3.4670600112
H       -0.9646895916   -1.9976952672   -3.6437960750
H        0.6480218461   -1.2746111506   -3.5470334887
H       -3.7521280368   -3.7880230176    5.2561524879
H       -3.0910243479   -2.1279508099    5.3466317534
H       -2.0151704486   -3.5004128045    4.9290372591
H       -0.0072809516   -2.3416282120   -1.3457881294
H       -1.4361323967   -1.3291755489   -1.2808202489
H        1.7419232211   -0.3740030680    1.6639313157
H        1.1252601500    1.1004874643    2.0026419767
29   
Generated by ForceBalance from scan.xyz: Frame 5 of 24
C       -2.2115536002   -0.3210100767    1.3550650044
C       -3.0619949095   -1.1227704252    2.0951969920
C       -0.8569642042   -0.6893510567    1.2764170941
C       -2.4994405676   -2.2590867179    2.6949784225
C       -0.2055873812    1.0566997504   -0.5735913072
C        0.4159650790   -0.2723829915   -0.9472995707
C        0.1875355609    0.0786795921    0.5133817227
C       -0.3906788006   -1.1354776265   -3.1833936167
C       -3.1394307822   -3.0060575244    4.8356768576
C       -0.3973522517   -1.3320517476   -1.6620606909
N       -0.3863681882   -1.7719941275    1.9174448237
N       -1.2019717382   -2.5522513738    2.6264672310
N        1.3959854628    0.4159436315    1.2450399831
O       -3.2950642197   -3.1112496674    3.4104158415
H       -2.5719370017    0.5767164572    0.8629075234
H       -4.1201708096   -0.9102150741    2.2145721952
H        0.4005813638    1.9531675786   -0.6518210671
H       -1.2577945670    1.1930014260   -0.8079470785
H        1.4655989829   -0.2286593714   -1.2292023082
H       -0.8084852515   -0.1593567322   -3.4541497487
H       -0.9812157417   -1.9089064628   -3.6861491001
H        0.6288822284   -1.1810428143   -3.5823607049
H       -3.7979853038   -3.7594019504    5.2704390551
H       -3.4404062918   -2.0088232827    5.1813824184
H       -2.1028588399   -3.2038529595    5.1258790802
H        0.0014608354   -2.3228131915   -1.4109519695
H       -1.4314609174   -1.3202588212   -1.2982962823
H        1.7730902171   -0.4433153224    1.6461135768
H        1.1569192647    1.0193835271    2.0324913537
29   
Generated by ForceBalance from scan.xyz: Frame 6 of 24
C       -2.1497336826   -0.4117670596    1.3885504730
C       -2.9781379130   -1.2367798106    2.1273773513
C       -0.7852313726   -0.7433650527    1.3117335363
C       -2.3849123823   -2.3535483155    2.7352477444
C       -0.1762490251    1.0526473711   -0.5072048830
C        0.4423838333   -0.2638012328   -0.9260848753
C        0.2401347069    0.0496160536    0.5479830192
C       -0.4011180710   -1.0705182975   -3.1693953610
C       -3.2697738666   -2.9104264244    4.8427046509
C       -0.3793081415   -1.3079261819   -1.6539862859
N       -0.2880480965   -1.8155035896    1.9498658051
N       -1.0816657021   -2.6154003619    2.6635592419
N        1.4613827387    0.3747867792    1.2632128526
O       -3.1500854012   -3.2365158965    3.4496369696
H       -2.5364107673    0.4715212926    0.8904839211
H       -4.0434943165   -1.0553785859    2.2360484839
H        0.4257531813    1.9529023392   -0.5730304219
H       -1.2327390309    1.1921646808   -0.7190607415
H        1.4868653418   -0.2092536412   -1.2246817449
H       -0.8284266570   -0.0897050479   -3.4062165415
H       -0.9969406808   -1.8333152800   -3.6820530056
H        0.6112436001   -1.0999921917   -3.5876816696
H       -3.9012943493   -3.6823520170    5.2851118103
H       -3.7421071072   -1.9284053917    4.9759419949
H       -2.2854757588   -2.9151875357    5.3239585722
H        0.0286774457   -2.3030824513   -1.4372633061
H       -1.4067565431   -1.3114731918   -1.2718080894
H        1.8463357594   -0.4913146291    1.6413988267
H        1.2355014460    0.9622197903    2.0665072376
29   
Generated by ForceBalance from scan.xyz: Frame 7 of 24
C       -2.0920903737   -0.4510383485    1.4350976810
C       -2.8867101665   -1.2902570306    2.1931796329
C       -0.7247444676   -0.7609911871    1.3193465200
C       -2.2583822457   -2.3946749042    2.7915472876
C       -0.1918932171    1.0551319365   -0.5039650392
C        0.4332795599   -0.2496710321   -0.9489519841
C        0.2676397716    0.0511592872    0.5322040300
C       -0.4613693282   -1.0528381130   -3.1735886654
C       -3.3842137164   -2.8555464514    4.8148470485
C       -0.3937167369   -1.3003836104   -1.6611404415
N       -0.1962462588   -1.8298287444    1.9354263270
N       -0.9557297783   -2.6409485300    2.6747165527
N        1.5036461001    0.3892093290    1.2154320220
O       -2.9794654964   -3.3063489404    3.5147835955
H       -2.5082558415    0.4228745748    0.9443289615
H       -3.9529604187   -1.1255280935    2.3194432495
H        0.3953391460    1.9642812481   -0.5802181378
H       -1.2557441913    1.1810895089   -0.6854827410
H        1.4681041174   -0.1782459222   -1.2762455667
H       -0.9088121306   -0.0765521683   -3.3912026047
H       -1.0605634145   -1.8204419435   -3.6750394788
H        0.5391774769   -1.0650059930   -3.6202062745
H       -3.9726441150   -3.6648496412    5.2496020545
H       -4.0014681110   -1.9503049003    4.7517803634
H       -2.5070126142   -2.6584293419    5.4418888311
H        0.0340729238   -2.2910813943   -1.4630708398
H       -1.4098960815   -1.3212019681   -1.2504063247
H        1.9114247633   -0.4738916298    1.5761913507
H        1.2918297605    0.9673936438    2.0291936603
29   
Generated by ForceBalance from scan.xyz: Frame 8 of 24
C       -2.0170687229   -0.4461287977    1.4920964734
C       -2.7867118799   -1.2863016601    2.2740385664
C       -0.6520887195   -0.7482143725    1.3372091595
C       -2.1355616716   -2.3829570521    2.8649758881
C       -0.1793583475    1.0686460799   -0.5014780184
C        0.4384172495   -0.2337686547   -0.9637781001
C        0.3141205097    0.0671563978    0.5213284108
C       -0.5178272435   -1.0423187251   -3.1608563863
C       -3.4987853789   -2.8248872272    4.7580204398
C       -0.4044158068   -1.2885190811   -1.6509248647
N       -0.1037096166   -1.8152882992    1.9377804661
N       -0.8360201617   -2.6258538143    2.7034409417
N        1.5680113697    0.4112268440    1.1682628511
O       -2.8120241250   -3.3157501561    3.6000373811
H       -2.4535220007    0.4219147377    1.0085797860
H       -3.8496821607   -1.1196319558    2.4209330215
H        0.4015302840    1.9802596100   -0.5950975843
H       -1.2485612539    1.1900738601   -0.6522196062
H        1.4628893374   -0.1579721353   -1.3212736715
H       -0.9756427247   -0.0680670903   -3.3656903253
H       -1.1282920009   -1.8127987226   -3.6440150272
H        0.4691141246   -1.0505169151   -3.6368748632
H       -3.9390555310   -3.6987720407    5.2400333701
H       -4.2977705697   -2.1212357019    4.4944266443
H       -2.7956567704   -2.3409997667    5.4455464284
H        0.0333941432   -2.2771923184   -1.4649818038
H       -1.4078980520   -1.3136237936   -1.2102919458
H        1.9896657947   -0.4500079456    1.5174238213
H        1.3769357046    0.9883768983    1.9878904799
29   
Generated by ForceBalance from scan.xyz: Frame 9 of 24
C       -1.9561475118   -0.4233515274    1.5508450319
C       -2.7061952709   -1.2580404597    2.3588679679
C       -0.6013347608   -0.7360912714    1.3490395358
C       -2.0426634798   -2.3576954704    2.9308860741
C       -0.1815255919    1.0729662174   -0.5085338317
C        0.4272997699   -0.2297376965   -0.9827150748
C        0.3415883785    0.0759249666    0.5037149343
C       -0.5877389760   -1.0471122273   -3.1500897352
C       -3.6032342452   -2.8215150204    4.6685729106
C       -0.4316089058   -1.2884847481   -1.6431913662
N       -0.0413849805   -1.8096436264    1.9296491164
N       -0.7509847252   -2.6144147962    2.7177217197
N        1.6114005181    0.4249156370    1.1166118262
O       -2.6809307576   -3.2982485264    3.6826081387
H       -2.4026288737    0.4488303098    1.0839336436
H       -3.7602487447   -1.0746132650    2.5422747152
H        0.3939853683    1.9858676426   -0.6210097998
H       -1.2548464320    1.1905614914   -0.6308553495
H        1.4413300049   -0.1524124006   -1.3685310245
H       -1.0530290665   -0.0743285136   -3.3448831333
H       -1.2099042549   -1.8201771750   -3.6138612306
H        0.3855178167   -1.0547611951   -3.6535291640
H       -3.8201532110   -3.6751326563    5.3120487241
H       -4.5392917098   -2.4711359535    4.2166453860
H       -3.1578766383   -2.0168135220    5.2641282277
H        0.0134950507   -2.2755991517   -1.4664874340
H       -1.4222339649   -1.3143845966   -1.1743458148
H        2.0448191775   -0.4346749097    1.4553996783
H        1.4402410116    1.0022345357    1.9405375629
29   
Generated by ForceBalance from scan.xyz: Frame 10 of 24
C       -1.9074789179   -0.4149613096    1.6025890120
C       -2.6416816148   -1.2427361475    2.4334261390
C       -0.5586462215   -0.7263982410    1.3690732933
C       -1.9652875999   -2.3400915931    2.9956158885
C       -0.1765370826    1.0704734180   -0.5079399998
C        0.4184666310   -0.2362568450   -0.9887152223
C        0.3671743352    0.0777336830    0.4975995638
C       -0.6474121601   -1.0632437966   -3.1279604579
C       -3.6838214146   -2.8591160678    4.5639989363
C       -0.4575389651   -1.2965636880   -1.6236537915
N        0.0131231186   -1.7974191826    1.9440144463
N       -0.6774213327   -2.5973437314    2.7504630913
N        1.6517452795    0.4273487928    1.0788956298
O       -2.5661658926   -3.2763426730    3.7769529893
H       -2.3647896225    0.4557115000    1.1435537936
H       -3.6890095029   -1.0490185345    2.6401006985
H        0.3983920263    1.9813371414   -0.6386034163
H       -1.2520669086    1.1901733771   -0.6064403399
H        1.4235044501   -0.1632356261   -1.3981972798
H       -1.1147640195   -0.0904129279   -3.3175452727
H       -1.2817218395   -1.8373538636   -3.5732240724
H        0.3141178003   -1.0759786580   -3.6533548320
H       -3.8606085386   -3.6635544593    5.2787932623
H       -4.5834428255   -2.7242269560    3.9507961377
H       -3.4629222439   -1.9308942170    5.1034413774
H       -0.0107310375   -2.2837588388   -1.4516154595
H       -1.4372330795   -1.3174682433   -1.1321570938
H        2.0901421557   -0.4313268756    1.4136200006
H        1.5005570823    1.0100607461    1.9029646412
29   
Generated by ForceBalance from scan.xyz: Frame 11 of 24
C       -2.1621389144   -0.5481472916    1.4124428304
C       -2.7615831745   -1.4165096192    2.3095358389
C       -0.7623504841   -0.5268569875    1.3319640735
C       -1.9037429759   -2.2156886951    3.0856727491
C       -0.6092384955    0.9751727203   -0.8137048682
C        0.3959707611   -0.1484182944   -0.9618165468
C        0.0284999915    0.3680758781    0.4178498699
C       -0.0499989449   -1.5962777084   -2.9873856833
C       -3.6931813703   -3.1046615778    4.3868162630
C       -0.0394846847   -1.5127008583   -1.4557014838
N       -0.0126220674   -1.3213401309    2.1155375134
N       -0.5709406702   -2.1558194244    2.9834592852
N        1.0569196710    1.1777714791    1.0487815056
O       -2.3260781712   -3.1453989568    3.9802068111
H       -2.7636300470    0.1051877138    0.7882436650
H       -3.8406599204   -1.4673848283    2.4038865422
H       -0.3003249129    1.9843289600   -1.0656726925
H       -1.6463005033    0.7427059786   -1.0406557546
H        1.3905157200    0.1600852978   -1.2762483131
H       -0.7341300938   -0.8550263528   -3.4155250031
H       -0.3662873551   -2.5877497471   -3.3292017296
H        0.9467509782   -1.4029975819   -3.3996134974
H       -3.7838682902   -3.8366287559    5.1897025307
H       -4.3665577534   -3.3859868033    3.5676802925
H       -3.9665589923   -2.1122364279    4.7648181999
H        0.6317282799   -2.2762968504   -1.0433220606
H       -1.0388139858   -1.7480934832   -1.0710502686
H        1.6669304951    0.5553173384    1.5799136400
H        0.6239457902    1.8033916753    1.7289223212
29   
Generated by ForceBalance from scan.xyz: Frame 12 of 24
C       -2.1406566460   -0.5025462945    1.4565037691
C       -2.7411339548   -1.3522401624    2.3712423645
C       -0.7422385142   -0.4984015580    1.3600513493
C       -1.8839275092   -2.1559120622    3.1435014022
C       -0.5984690027    0.9706918452   -0.8085555050
C        0.3924957615   -0.1659726195   -0.9526897835
C        0.0476398526    0.3741228366    0.4238090538
C       -0.0939172174   -1.6372009238   -2.9519759155
C       -3.7038456733   -3.1862960837    4.2904655564
C       -0.0636928815   -1.5321791334   -1.4218689810
N        0.0072822799   -1.2885331148    2.1487372952
N       -0.5509208671   -2.1076973222    3.0301063859
N        1.0926496968    1.1812999255    1.0302327669
O       -2.3007100662   -3.0495625361    4.0758393769
H       -2.7413272579    0.1529940985    0.8338133508
H       -3.8192440478   -1.3828361287    2.4810038398
H       -0.2816313755    1.9726556329   -1.0787433274
H       -1.6407536118    0.7466281380   -1.0194721749
H        1.3864319235    0.1270426128   -1.2834265832
H       -0.7752892745   -0.8946511583   -3.3822468766
H       -0.4249095567   -2.6298935991   -3.2759016569
H        0.8997025073   -1.4605241278   -3.3789374301
H       -3.8101875380   -3.9465394379    5.0644755560
H       -4.2179166914   -3.5210793730    3.3811061403
H       -4.1492142607   -2.2474725316    4.6419288434
H        0.6043238700   -2.2972123649   -1.0069196625
H       -1.0607237128   -1.7510865347   -1.0217886525
H        1.7013997514    0.5599431391    1.5640793253
H        0.6747657056    1.8222164115    1.7055651681
29   
Generated by ForceBalance from scan.xyz: Frame 13 of 24
C       -2.1241624000   -0.4482330013    1.4925146661
C       -2.7279857797   -1.2754368149    2.4248588481
C       -0.7258376097   -0.4624623062    1.3887336212
C       -1.8761567831   -2.0806570919    3.2014013671
C       -0.5802560004    0.9713369438   -0.8035844957
C        0.3906672116   -0.1832491743   -0.9401242904
C        0.0683455168    0.3830757283    0.4315411553
C       -0.1388640407   -1.6752463317   -2.9127678210
C       -3.6892429229   -3.2628777378    4.2017713318
C       -0.0919638610   -1.5486010039   -1.3847053988
N        0.0191866033   -1.2443823061    2.1892322952
N       -0.5436441753   -2.0454522002    3.0851863296
N        1.1322503507    1.1822812790    1.0150121864
O       -2.3018060235   -2.9311724330    4.1700838479
H       -2.7203825116    0.2074310286    0.8657145058
H       -3.8052502108   -1.2879788813    2.5483623939
H       -0.2499295563    1.9638653414   -1.0918263397
H       -1.6280290428    0.7613076191   -1.0011863102
H        1.3859688566    0.0885890982   -1.2845259643
H       -0.8124844537   -0.9281060140   -3.3472561746
H       -0.4887724628   -2.6670533289   -3.2190670470
H        0.8532122387   -1.5207121642   -3.3517157503
H       -3.7866546135   -4.0528682425    4.9468202733
H       -4.0322986722   -3.6340549530    3.2286030176
H       -4.3020129711   -2.4054764969    4.5065565824
H        0.5678286649   -2.3182544163   -0.9651109859
H       -1.0884586996   -1.7455255248   -0.9720255618
H        1.7349065564    0.5596944735    1.5542989543
H        0.7312150429    1.8413743335    1.6830393733
29   
Generated by ForceBalance from scan.xyz: Frame 14 of 24
C       -2.1164314098   -0.3841970226    1.5178242548
C       -2.7276882128   -1.1856041878    2.4659303653
C       -0.7173237286   -0.4226112722    1.4112542089
C       -1.8872113436   -1.9949289203    3.2510372066
C       -0.5557793152    0.9776738172   -0.8024527342
C        0.3891616501   -0.1991920549   -0.9285241432
C        0.0878071969    0.3932087958    0.4371765464
C       -0.1834682906   -1.7062420173   -2.8773485862
C       -3.6530951119   -3.3376125694    4.1226560471
C       -0.1251673788   -1.5598704578   -1.3514280397
N        0.0174163634   -1.2000228111    2.2235575677
N       -0.5563857996   -1.9806291396    3.1339632143
N        1.1721176145    1.1775358948    1.0025193388
O       -2.3352621704   -2.7994578699    4.2511626386
H       -2.7034583357    0.2728289395    0.8838942652
H       -3.8042695347   -1.1798618341    2.6004220122
H       -0.2059933076    1.9587637682   -1.1064313444
H       -1.6089706432    0.7877049893   -0.9911481453
H        1.3880432304    0.0462955102   -1.2822139054
H       -0.8433634663   -0.9507333843   -3.3183532519
H       -0.5562829276   -2.6943457491   -3.1681983626
H        0.8091828920   -1.5790358676   -3.3236749892
H       -3.7250242629   -4.1291646966    4.8693913116
H       -3.8121020105   -3.7597672201    3.1237238246
H       -4.4208086778   -2.5819558040    4.3301566677
H        0.5204375043   -2.3377132230   -0.9248972857
H       -1.1233698240   -1.7297116205   -0.9308697996
H        1.7640410523    0.5503312263    1.5482630873
H        0.7894706095    1.8555776611    1.6622985824
29   
Generated by ForceBalance from scan.xyz: Frame 15 of 24
C       -2.1154898293   -0.3074055763    1.5356122592
C       -2.7430419184   -1.0802192444    2.4956945554
C       -0.7168239209   -0.3825877583    1.4300842740
C       -1.9219011238   -1.8994698558    3.2897961357
C       -0.5271118338    0.9880982707   -0.7999926856
C        0.3861845056   -0.2144248223   -0.9153246960
C        0.1053635964    0.4015358510    0.4443876837
C       -0.2313142207   -1.7283069148   -2.8448826194
C       -3.5957700025   -3.4155082864    4.0425179479
C       -0.1650039557   -1.5659406631   -1.3209154822
N        0.0004621409   -1.1661522657    2.2512803940
N       -0.5928291824   -1.9234501466    3.1713448015
N        1.2115838415    1.1637403245    0.9970111883
O       -2.4049081026   -2.6660137183    4.3077225792
H       -2.6859723856    0.3573424699    0.8946597362
H       -3.8185820686   -1.0475020667    2.6391331883
H       -0.1528802672    1.9561478452   -1.1163479256
H       -1.5855396752    0.8235189901   -0.9830817415
H        1.3900793924    0.0005962555   -1.2745725948
H       -0.8721755717   -0.9607204572   -3.2930024562
H       -0.6309235499   -2.7094653678   -3.1233619627
H        0.7631505838   -1.6325924165   -3.2949891401
H       -3.6872429566   -4.1308247090    4.8609039370
H       -3.5152557801   -3.9539624736    3.0916247732
H       -4.4866942465   -2.7758079867    4.0294350361
H        0.4611140532   -2.3555294907   -0.8869596499
H       -1.1662639908   -1.7044824138   -0.8961059823
H        1.7887345731    0.5278791828    1.5485218602
H        0.8491667811    1.8596381579    1.6495754686
29   
Generated by ForceBalance from scan.xyz: Frame 16 of 24
C       -2.1210366943   -0.2425241686    1.5423984779
C       -2.7647821764   -0.9867205107    2.5127910471
C       -0.7234630232   -0.3577532912    1.4369712004
C       -1.9636475004   -1.8150829627    3.3177743957
C       -0.5015583528    0.9882222886   -0.8059623049
C        0.3742427852   -0.2423307174   -0.9133815158
C        0.1173202819    0.3944102604    0.4417721258
C       -0.2946436157   -1.7549227081   -2.8266754275
C       -3.4877825613   -3.5133150023    3.9711940060
C       -0.2190205923   -1.5802575151   -1.3045102120
N       -0.0252944648   -1.1503992908    2.2639285763
N       -0.6391063302   -1.8832216718    3.1943784951
N        1.2477215611    1.1276962957    0.9837555585
O       -2.4883768947   -2.5547245937    4.3401632196
H       -2.6732962575    0.4310778185    0.8948159069
H       -3.8377606020   -0.9234373658    2.6677181180
H       -0.0991405860    1.9415668492   -1.1321670423
H       -1.5651307524    0.8545078228   -0.9842191493
H        1.3831155924   -0.0614032649   -1.2774183287
H       -0.9131385283   -0.9724581534   -3.2804130919
H       -0.7247551940   -2.7260314390   -3.0946866125
H        0.7009774140   -1.6938353884   -3.2802127825
H       -3.7608413965   -4.0328525088    4.8906245917
H       -3.0832196750   -4.2317567549    3.2491182097
H       -4.3810488422   -3.0347189837    3.5517592669
H        0.3841607211   -2.3843578472   -0.8647193725
H       -1.2228577935   -1.6843733491   -0.8759331359
H        1.8072349238    0.4803033976    1.5399388844
H        0.9090230605    1.8412722394    1.6298959581
29   
Generated by ForceBalance from scan.xyz: Frame 17 of 24
C       -2.1436461203   -0.1570042970    1.5469710805
C       -2.8204340652   -0.8722972348    2.5169628616
C       -0.7497151290   -0.3219812647    1.4565063091
C       -2.0537632637   -1.7146139149    3.3389035284
C       -0.4588514669    1.0068258236   -0.7895477847
C        0.3708741926   -0.2561699078   -0.8846173961
C        0.1262848631    0.3954706359    0.4658743231
C       -0.3361905350   -1.7513745340   -2.7979045396
C       -3.3934848763   -3.5705287306    3.9143752661
C       -0.2688809404   -1.5724858047   -1.2758321895
N       -0.0857668915   -1.1360937050    2.2914332229
N       -0.7335361931   -1.8380851015    3.2237290328
N        1.2783567977    1.0883168696    1.0150517054
O       -2.6381376529   -2.4310371007    4.3485475264
H       -2.6659745010    0.5279345242    0.8865935970
H       -3.8924566542   -0.7811042047    2.6667989217
H       -0.0179007350    1.9430434965   -1.1154931196
H       -1.5250834467    0.9126692806   -0.9768988269
H        1.3891199892   -0.1149690003   -1.2400263009
H       -0.9200659420   -0.9482159518   -3.2612132750
H       -0.8002539826   -2.7067321898   -3.0658541179
H        0.6654192597   -1.7303095217   -3.2417561458
H       -3.8225374074   -4.0137804723    4.8141940441
H       -2.7392133492   -4.2978804480    3.4200450372
H       -4.2016026196   -3.2796571837    3.2311466074
H        0.2991156165   -2.3967798698   -0.8266366682
H       -1.2801315304   -1.6365062784   -0.8569146785
H        1.8086194361    0.4232457872    1.5789230100
H        0.9611741048    1.8175481867    1.6545599720
29   
Generated by ForceBalance from scan.xyz: Frame 18 of 24
C       -2.1717323854   -0.0728396371    1.5359816247
C       -2.8907009337   -0.7624780422    2.4954052543
C       -0.7852299120   -0.2951356180    1.4638576360
C       -2.1681187627   -1.6273888021    3.3313506486
C       -0.4069472573    1.0228584261   -0.7756712768
C        0.3755539218   -0.2709021320   -0.8585840362
C        0.1335018584    0.3887469076    0.4883214822
C       -0.3559171158   -1.7373900952   -2.7850093058
C       -3.2965481379   -3.6105713689    3.9020723665
C       -0.3074778408   -1.5615953949   -1.2618579637
N       -0.1659109121   -1.1422396513    2.3018145326
N       -0.8537350445   -1.8122948614    3.2277019985
N        1.3015844189    1.0366731368    1.0581853460
O       -2.8099470153   -2.3258829684    4.3191158077
H       -2.6573565678    0.6285313629    0.8649117442
H       -3.9615732718   -0.6398261856    2.6292065951
H        0.0746786066    1.9417591310   -1.0931886001
H       -1.4727743637    0.9694439877   -0.9805375696
H        1.4041450652   -0.1684210844   -1.1970948694
H       -0.9008571133   -0.9124467987   -3.2573639569
H       -0.8515566027   -2.6742623918   -3.0615397696
H        0.6530895202   -1.7544935456   -3.2119557442
H       -3.7905175368   -4.0482213223    4.7709151021
H       -2.4660752963   -4.2513047597    3.5853086548
H       -4.0187403848   -3.5085554786    3.0815543444
H        0.2208602761   -2.4071733506   -0.8038966519
H       -1.3273599214   -1.5868477637   -0.8600970644
H        1.7975627854    0.3511898189    1.6287561161
H        1.0018873533    1.7765573531    1.6938610747
29   
Generated by ForceBalance from scan.xyz: Frame 19 of 24
C       -2.2004010203   -0.0185622221    1.5080433493
C       -2.9599306788   -0.6899633727    2.4494420778
C       -0.8227822752   -0.2933608219    1.4529071276
C       -2.2814240358   -1.5832305479    3.2916807731
C       -0.3617084236    1.0295838477   -0.7678931580
C        0.3792296963   -0.2886770233   -0.8496329120
C        0.1352301187    0.3663969742    0.4988762509
C       -0.3671287148   -1.7125740804   -2.8021995624
C       -3.2028247368   -3.6488641089    3.9475355289
C       -0.3386976539   -1.5524236462   -1.2768281747
N       -0.2488074735   -1.1759249954    2.2872167829
N       -0.9743639897   -1.8225701664    3.1994382898
N        1.3137788266    0.9702730863    1.0953568129
O       -2.9733259108   -2.2634869728    4.2558378328
H       -2.6504883954    0.7013741698    0.8318505962
H       -4.0288630805   -0.5373140277    2.5645200251
H        0.1553132431    1.9348414541   -1.0684907400
H       -1.4250054289    1.0132122226   -0.9914341866
H        1.4163066163   -0.2170875351   -1.1697360216
H       -0.8770660615   -0.8660470617   -3.2754492847
H       -0.8881238923   -2.6302395962   -3.0960072161
H        0.6478482231   -1.7585352778   -3.2125702880
H       -3.7250024661   -4.0697691875    4.8079743781
H       -2.2536217377   -4.1718319947    3.7941881255
H       -3.8303670679   -3.7434097346    3.0521188579
H        0.1539528243   -2.4190229889   -0.8183655470
H       -1.3654385670   -1.5479048292   -0.8921642433
H        1.7771694309    0.2635986797    1.6674677632
H        1.0273766293    1.7138257904    1.7328802424
29   
Generated by ForceBalance from scan.xyz: Frame 20 of 24
C       -2.2209592875    0.0118806692    1.4748758155
C       -3.0120111837   -0.6526027727    2.3939319556
C       -0.8514099148   -0.3046382611    1.4261599979
C       -2.3695698530   -1.5811989527    3.2276195263
C       -0.3286460426    1.0326056336   -0.7712680426
C        0.3829370204   -0.3015178049   -0.8591670516
C        0.1358209607    0.3427597277    0.4935470416
C       -0.3728705552   -1.6837221386   -2.8380322273
C       -3.1053450417   -3.6833832507    4.0253525573
C       -0.3586223850   -1.5430058514   -1.3105607583
N       -0.3150024096   -1.2219175571    2.2465335388
N       -1.0699347264   -1.8599716294    3.1410374853
N        1.3200007310    0.9120339559    1.1129750414
O       -3.1043411347   -2.2505685187    4.1631723042
H       -2.6421882753    0.7550764911    0.8052891176
H       -4.0778600181   -0.4737535569    2.4975775206
H        0.2129718504    1.9290948141   -1.0543986665
H       -1.3890168050    1.0431883428   -1.0087014491
H        1.4253368895   -0.2501356813   -1.1656342913
H       -0.8576597174   -0.8198635624   -3.3063876285
H       -0.9114110405   -2.5853809074   -3.1492839309
H        0.6455002278   -1.7480888105   -3.2374204294
H       -3.6952937549   -4.0647076942    4.8598891025
H       -2.0876839486   -4.0793660664    4.0713613224
H       -3.5762165207   -3.9701505378    3.0771443315
H        0.1084539689   -2.4262946111   -0.8572259457
H       -1.3893743804   -1.5194188397   -0.9375327148
H        1.7603227266    0.1872261300    1.6806296600
H        1.0420592537    1.6528088724    1.7574580110
29   
Generated by ForceBalance from scan.xyz: Frame 21 of 24
C       -2.2188108712    0.0410204252    1.4503688402
C       -3.0341492876   -0.6126166927    2.3531380446
C       -0.8572114251   -0.3148556794    1.4020080103
C       -2.4220711489   -1.5732756384    3.1767348132
C       -0.2878570424    1.0398774940   -0.7726546609
C        0.3952412271   -0.3082864603   -0.8739737099
C        0.1519147150    0.3221372026    0.4854622860
C       -0.3782476602   -1.6454081945   -2.8768915995
C       -2.9957686302   -3.6582187359    4.1579621544
C       -0.3703866989   -1.5266676862   -1.3475181678
N       -0.3540642819   -1.2632652729    2.2046351507
N       -1.1332083357   -1.8944897975    3.0855279504
N        1.3436931336    0.8570960804    1.1212789186
O       -3.1943952118   -2.2334140079    4.0811820484
H       -2.6154848450    0.8038226835    0.7878898043
H       -4.0956413602   -0.4072305734    2.4515145149
H        0.2752434948    1.9281070100   -1.0395114252
H       -1.3459822369    1.0767668301   -1.0174820831
H        1.4405244652   -0.2754561075   -1.1731450010
H       -0.8407827230   -0.7643677121   -3.3356787026
H       -0.9347820581   -2.5302934864   -3.2042511758
H        0.6409088288   -1.7267813399   -3.2711982365
H       -3.7610466907   -4.0231876307    4.8441588981
H       -1.9995120271   -3.8975307419    4.5357996125
H       -3.1317937791   -4.1109163241    3.1696587906
H        0.0742409031   -2.4262870756   -0.9038659555
H       -1.4026118648   -1.4856441336   -0.9801378611
H        1.7646212314    0.1142705078    1.6803154982
H        1.0765792845    1.5931166008    1.7757336891
29   
Generated by ForceBalance from scan.xyz: Frame 22 of 24
C       -2.2286778367    0.0489281076    1.4301046049
C       -3.0700525236   -0.6018264244    2.3076448249
C       -0.8745820147   -0.3425527771    1.3853019507
C       -2.4911527403   -1.6024826739    3.1111065833
C       -0.2521506815    1.0447715981   -0.7540603178
C        0.4055532940   -0.3144406723   -0.8757218620
C        0.1584114422    0.2921102549    0.4935452900
C       -0.3707807664   -1.5949419387   -2.9143482240
C       -2.9399621952   -3.6245948558    4.2789991322
C       -0.3788148533   -1.5070844065   -1.3829017255
N       -0.4053239910   -1.3216848474    2.1674682454
N       -1.2113237563   -1.9559986120    3.0251782822
N        1.3529123918    0.7903462863    1.1541175001
O       -3.2980787135   -2.2620557501    3.9783490294
H       -2.5976019592    0.8386234850    0.7833428298
H       -4.1264248880   -0.3696579798    2.4015497125
H        0.3314475480    1.9269558754   -0.9958260700
H       -1.3063432759    1.1075738799   -1.0103899312
H        1.4545477774   -0.2962644108   -1.1629408227
H       -0.8096251093   -0.6954575582   -3.3604725448
H       -0.9414007288   -2.4613306212   -3.2660490638
H        0.6511465199   -1.6894898504   -3.2984698600
H       -3.7845763926   -4.0254592076    4.8407746419
H       -2.0267038401   -3.6698920154    4.8763036756
H       -2.7929803466   -4.1911848284    3.3544679311
H        0.0419660010   -2.4243524786   -0.9523398123
H       -1.4142765346   -1.4522674902   -1.0266158421
H        1.7522933917    0.0276743537    1.7021585541
H        1.0919736573    1.5172247025    1.8212014395
29   
Generated by ForceBalance from scan.xyz: Frame 23 of 24
C       -2.2403044481    0.0381662508    1.4100946604
C       -3.1023626477   -0.6200458086    2.2591879865
C       -0.8914771970   -0.3766462119    1.3652299919
C       -2.5509644577   -1.6614586885    3.0324024214
C       -0.2231076167    1.0513687154   -0.7331149206
C        0.4161806975   -0.3142713569   -0.8792292524
C        0.1617876232    0.2635068093    0.5009700508
C       -0.3524311729   -1.5381359784   -2.9553191340
C       -2.9081452588   -3.5805404101    4.3921385559
C       -0.3797432044   -1.4830981201   -1.4225827878
N       -0.4473141383   -1.3808223721    2.1268774008
N       -1.2745113954   -2.0269904424    2.9582208497
N        1.3557600678    0.7287108027    1.1865007088
O       -3.3838848276   -2.3278657100    3.8648076428
H       -2.5863266631    0.8578141895    0.7885339821
H       -4.1539747899   -0.3672043977    2.3536648615
H        0.3761036414    1.9302026620   -0.9474038873
H       -1.2731481455    1.1355837001   -1.0001021800
H        1.4685233790   -0.3049265779   -1.1543996678
H       -0.7712010752   -0.6224469175   -3.3875848914
H       -0.9316859387   -2.3876236471   -3.3331597619
H        0.6729879883   -1.6406012564   -3.3279762298
H       -3.7535440192   -3.9956735647    4.9419000173
H       -2.0548748529   -3.4269065790    5.0569527652
H       -2.6101187838   -4.2495696095    3.5801497770
H        0.0206817453   -2.4160167396   -1.0064854410
H       -1.4189120351   -1.4195194774   -1.0787707652
H        1.7368071591   -0.0522678548    1.7216752422
H        1.0972281679    1.4437397447    1.8672203806
29   
Generated by ForceBalance from scan.xyz: Frame 24 of 24
C       -2.2426485276    0.0239207689    1.3797729771
C       -3.1170230785   -0.6492218238    2.2032985290
C       -0.8949470529   -0.3971194403    1.3414837931
C       -2.5818080366   -1.7187551430    2.9501203246
C       -0.2036341677    1.0740113685   -0.7195639677
C        0.4242199280   -0.2935031599   -0.8940623218
C        0.1681350960    0.2547532374    0.4981235601
C       -0.3455172055   -1.4619861169   -3.0014671150
C       -2.8718622801   -3.4873747299    4.5143196355
C       -0.3792822277   -1.4423885600   -1.4679987635
N       -0.4616468868   -1.4125678750    2.0932705178
N       -1.3020012040   -2.0752362980    2.8990896909
N        1.3628798163    0.6934206659    1.1994585920
O       -3.4289713642   -2.3973645257    3.7564625891
H       -2.5753499552    0.8651092119    0.7800898624
H       -4.1669764941   -0.3891554323    2.2967468585
H        0.4045157155    1.9520804109   -0.9105086350
H       -1.2514824697    1.1739236797   -0.9896786948
H        1.4780176082   -0.2873398460   -1.1636609586
H       -0.7543915932   -0.5328539493   -3.4140751428
H       -0.9304424733   -2.2973400236   -3.4014229017
H        0.6806426659   -1.5647670384   -3.3719978929
H       -3.7097122513   -3.8935926967    5.0818386260
H       -2.0870557573   -3.1308237606    5.1863606986
H       -2.4514193688   -4.2464211651    3.8497406030
H        0.0113181118   -2.3882575536   -1.0722596232
H       -1.4194077576   -1.3780650583   -1.1273091287
H        1.7327972039   -0.1028014695    1.7197666013
H        1.1071216558    1.3955855637    1.8944909934
