64

C      4.07405   -0.25752   -6.37891
C      5.19854    0.31871   -5.78284
C      3.62692   -1.47686   -4.34453
C      3.27526   -1.16003   -5.66392
C      2.07427   -1.80044   -6.28136
C      4.74621   -0.91685   -3.71550
C      0.88129   -1.07130   -6.45109
C      2.12860   -3.15830   -6.65002
C      5.50776   -0.02334   -4.47183
C     -0.21775   -1.75532   -7.01044
C      0.95911   -3.75649   -7.15268
C      6.16904   -2.46183   -2.30923
C      0.90984    5.29163   -7.46433
C     -2.66108   -1.75636   -6.42050
C     -1.91004   -1.17182   -8.77370
C      0.52587   -5.41600   -8.99397
C     -0.19849   -5.91064   -6.60951
C      5.14889   -1.30869   -2.31346
C      0.78742    0.38328   -6.03774
C      3.40450   -3.94537   -6.48975
C      1.00578    3.83036   -7.91711
C      0.93798    1.37106   -7.20870
C      0.84383    2.83331   -6.76387
C     -1.56518   -1.09703   -7.27619
C      0.85580   -5.23341   -7.50296
N     -0.16463   -3.05335   -7.33281
O      3.33173   -4.69420   -5.25902
F      6.61288    0.53775   -3.90192
H      3.82673   -0.01396   -7.40770
H      5.83331    1.01766   -6.31919
H      3.01823   -2.19154   -3.79725
H      5.75299   -3.34640   -2.80301
H      6.44063   -2.73752   -1.28472
H      7.08316   -2.17538   -2.83846
H      1.68502    5.52774   -6.72609
H      1.03025    5.98126   -8.30683
H     -0.06167    5.49812   -7.00040
H     -2.74545   -2.81843   -6.66686
H     -3.63005   -1.27745   -6.60058
H     -2.43261   -1.67342   -5.35216
H     -1.97080   -2.21481   -9.09665
H     -1.14691   -0.67300   -9.38142
H     -2.87318   -0.68789   -8.97056
H     -0.42891   -4.93846   -9.23202
H      0.45483   -6.48022   -9.24517
H      1.29669   -4.96652   -9.63035
H     -1.18035   -5.45486   -6.76610
H      0.06530   -5.80837   -5.55202
H     -0.26825   -6.97876   -6.84420
H      5.57471   -0.44503   -1.79388
H      4.25452   -1.61024   -1.75873
H     -0.16943    0.56662   -5.53695
H      1.56075    0.60029   -5.29621
H      3.54105   -4.62652   -7.33905
H      4.26249   -3.26570   -6.46723
H      0.23989    3.63081   -8.67819
H      1.97387    3.66125   -8.40707
H      0.17262    1.16573   -7.96716
H      1.90278    1.19980   -7.70035
H     -0.12410    3.00226   -6.27142
H      1.61134    3.02996   -6.00270
H     -1.51121   -0.04232   -6.99837
H      1.81278   -5.71675   -7.29572
H      4.16186   -5.18869   -5.16527
