48

C      0.85057    1.52328    1.25163
C      0.41126    2.55141   -1.51596
C     -2.34521    1.83114    2.14829
C     -1.06687    3.22026    0.84349
C     -1.57934    0.88143    1.22769
C     -0.49854    1.78642    0.54728
C      3.19199    2.42538    2.96286
C      1.41955    2.37344    4.75201
C      2.10523    0.22285    3.63783
C      2.79101    2.21107   -3.07459
C      1.18318    2.09149   -5.00494
C      1.57876    4.30917   -3.84863
C      1.91622    1.73238    3.45339
C      1.50620    2.78750   -3.68028
N     -0.35034    1.59293   -0.89661
O     -1.75108    0.17668   -2.61098
O      1.78444    0.94285    0.75156
O      1.02433    3.44411   -0.92190
O      0.70361   -0.26915   -2.48450
O     -0.78375   -0.95665   -0.61694
O     -2.35693    3.06974    1.46324
O      0.81278    1.99588    2.52402
O      0.34742    2.44076   -2.85898
F     -1.03833   -0.15030    2.00099
S     -0.56714   -0.06314   -1.76851
H     -3.37962    1.51686    2.31249
H     -1.82349    1.89865    3.11424
H     -0.39540    3.77359    1.50326
H     -1.21947    3.78447   -0.07195
H     -2.21357    0.42685    0.47166
H      3.55170    1.97393    2.03819
H      2.99869    3.48741    2.78056
H      3.97168    2.34135    3.72881
H      0.48883    1.89982    5.07914
H      1.22955    3.44114    4.60424
H      2.16841    2.25700    5.54238
H      1.15051   -0.24696    3.89110
H      2.48638   -0.24280    2.72907
H      2.81349    0.04379    4.45513
H      3.06406    2.72900   -2.15323
H      2.64589    1.15097   -2.85348
H      3.60944    2.32211   -3.79578
H      0.23685    2.46562   -5.40859
H      1.08172    1.01729   -4.83310
H      1.97801    2.27720   -5.73643
H      0.63451    4.68928   -4.25350
H      1.76646    4.78978   -2.88668
H      2.38428    4.57066   -4.54574
