29

C      1.61427   -0.84436    0.40037
C      0.27366   -0.96857    0.00835
C      2.51389   -1.90070    0.21044
C     -0.18307   -2.15502   -0.57793
C      2.05614   -3.08572   -0.36971
C      0.71436   -3.20862   -0.75340
C      0.09742   -5.45229   -3.67120
C      2.82479   -4.35043   -0.69591
C      1.70210   -5.38434   -0.95346
C     -0.15604   -6.80458   -5.39188
C     -0.70687   -7.50078   -4.12108
C      0.46008   -4.55962   -1.39226
N      0.45075   -5.55989   -4.90039
N      0.32422   -4.38068   -2.84866
O     -0.62951   -6.46945   -3.10008
H      1.95689    0.08086    0.85714
H     -0.41242   -0.13969    0.16251
H      3.55297   -1.79654    0.51525
H     -1.21952   -2.25433   -0.89146
H      3.44492   -4.19972   -1.58894
H      3.49909   -4.65656    0.10995
H      1.96852   -6.14369   -1.69272
H      1.46164   -5.90101   -0.01827
H      0.58841   -7.42080   -5.90656
H     -0.95278   -6.57934   -6.11234
H     -1.74861   -7.81946   -4.19636
H     -0.09107   -8.34405   -3.79236
H     -0.46481   -5.02161   -1.04212
H      0.95458   -3.70664   -3.26889
