27   

C        2.4506190000    1.0384552327   -0.4425082821
C        1.4321090128    0.2124065829   -0.9018017168
C        0.6507469216   -4.0845348207   -1.5569798404
C        2.2679078980    1.7788020197    0.7258691574
C        1.5952384577   -2.6943461989   -0.0816760992
C        0.4730904664   -2.8253622324   -0.8622485340
C        0.2555277937    0.1343142401   -0.1500409013
C        0.1294021368    0.9621626571    1.0040156334
C        1.8483868651   -4.5990338723   -1.1526397933
C       -0.7348448637   -1.9778032921   -1.0471709078
C       -2.1387382235   -0.1132651017   -0.2078835515
C       -2.1305664015    0.1539148510    1.3009401199
N        1.1316121031    1.7460412545    1.4294836873
N       -0.8344801057   -0.6707926424   -0.5504798242
O       -1.7234988655   -2.4605738505   -1.6018475186
O        2.4461247579   -3.7577186433   -0.2524638688
O       -1.0487628573    1.0080636800    1.7253669287
Br       2.5893403480   -6.2551851593   -1.7435564748
H        3.3854442382    1.1230550073   -0.9832674060
H        1.5511462801   -0.3481438891   -1.8238938054
H       -0.0421267029   -4.5380927628   -2.2590995071
H        3.0734192720    2.4149272636    1.0743087606
H        1.7960242885   -1.8831651661    0.6078647307
H       -2.9616192556   -0.7931848536   -0.4507104955
H       -2.3021478078    0.8194772980   -0.7575754031
H       -3.0821361946    0.6133137471    1.5856696772
H       -2.0541355818   -0.8002486557    1.8323618435
27   

C        2.4625382697    0.9273080684   -0.4423236645
C        1.4287624151    0.1123429706   -0.8860387810
C        0.7507309105   -3.9726019674   -1.7138090020
C        2.2843060183    1.7138247740    0.6955723320
C        1.4512520578   -2.7821613440    0.0481165459
C        0.4406688394   -2.8329804391   -0.8773501237
C        0.2380281670    0.0936246406   -0.1516759010
C        0.1224269359    0.9610249896    0.9746512904
C        1.9178737274   -4.5019968854   -1.2427765542
C       -0.7867114330   -2.0086418702   -1.0270931651
C       -2.1654579337   -0.1158250056   -0.2029899467
C       -2.1474728426    0.1956614836    1.2965830905
N        1.1392714091    1.7340416594    1.3851790857
N       -0.8695492030   -0.6974442864   -0.5386911736
O       -1.7945065342   -2.5112702930   -1.5253022508
O        2.3689761137   -3.7795783016   -0.1690022447
O       -1.0580806376    1.0552799840    1.6869810248
Br       2.7963984467   -6.0364868732   -1.9599941821
H        3.4060224347    0.9676464418   -0.9730618965
H        1.5487269844   -0.4814977911   -1.7867760077
H        0.1602426437   -4.3455015754   -2.5448319210
H        3.1015332888    2.3418177602    1.0312359335
H        1.5209696330   -2.0669475135    0.8600266643
H       -2.9972467717   -0.7933816510   -0.4205733584
H       -2.3226529683    0.8022080876   -0.7785901395
H       -3.0941600232    0.6700626790    1.5727763585
H       -2.0739403391   -0.7425125524    1.8561543272
27   

C        2.4470795224    0.8782833932   -0.4665481756
C        1.4035747340    0.0672174251   -0.8935244158
C        0.8634447700   -3.7965079664   -1.8655006430
C        2.2775245422    1.6924398795    0.6524797554
C        1.3265356065   -2.8657767764    0.1195690725
C        0.4210063895   -2.8098804713   -0.9054660756
C        0.2096545321    0.0805656299   -0.1629247256
C        0.1064663206    0.9720824290    0.9462146312
C        2.0055161230   -4.3484612987   -1.3587813534
C       -0.8359345832   -2.0217124363   -1.0067229410
C       -2.1996074868   -0.1118037617   -0.1918129350
C       -2.1645139606    0.2277146183    1.3007897791
N        1.1323535354    1.7419416335    1.3401325600
N       -0.9099663810   -0.7043723939   -0.5339465059
O       -1.8608175294   -2.5567581415   -1.4279679523
O        2.3132485605   -3.7818239552   -0.1485191423
O       -1.0702109163    1.0935684949    1.6604927878
Br       3.0255155622   -5.7250824420   -2.1985586735
H        3.3915908849    0.8939692899   -0.9967170432
H        1.5208228497   -0.5451627016   -1.7817868744
H        0.3735710787   -4.0632456072   -2.7964711673
H        3.1022218563    2.3178580989    0.9743836296
H        1.2724590081   -2.2769969785    1.0287407507
H       -3.0369409989   -0.7892048478   -0.3871801337
H       -2.3604598840    0.7961498410   -0.7821707909
H       -3.1073198788    0.7088356874    1.5785877500
H       -2.0853110141   -0.6994993996    1.8775388243
27   

C        2.4552355180    0.7963857727   -0.4557069650
C        1.3995300518   -0.0118087409   -0.8566635630
C        0.9701238047   -3.6484002098   -1.8629586169
C        2.2943434906    1.6574673516    0.6283378774
C        1.1914135193   -3.0201275735    0.2780025072
C        0.3974508850   -2.8307478625   -0.8175879479
C        0.2004764374    0.0512890086   -0.1359630320
C        0.1093831098    0.9873082738    0.9376260181
C        2.0767176567   -4.2423614300   -1.3251232604
C       -0.8776963695   -2.0641840818   -0.8981090442
C       -2.2139324290   -0.1033388661   -0.1589543855
C       -2.1722696096    0.2925489584    1.3190311453
N        1.1465598835    1.7548656168    1.3061311317
N       -0.9336735155   -0.7269789822   -0.4819237142
O       -1.9176971618   -2.6248877223   -1.2379990768
O        2.2370263308   -3.8594521255   -0.0176979754
O       -1.0668422417    1.1578289405    1.6424469580
Br       3.2323257592   -5.4479878845   -2.2479313459
H        3.4027347361    0.7733188769   -0.9801732516
H        1.5139816056   -0.6572712897   -1.7209417532
H        0.5883332533   -3.7840658885   -2.8695482061
H        3.1284829082    2.2806584955    0.9295422932
H        1.0189651346   -2.5749888053    1.2517752375
H       -3.0620770189   -0.7742836177   -0.3278012517
H       -2.3628153723    0.7838884083   -0.7829890229
H       -3.1082808302    0.7963432797    1.5790044572
H       -2.1036253119   -0.6124600103    1.9312256315
27   

C        2.4392079511    0.7515258371   -0.4962582057
C        1.3671904359   -0.0478637906   -0.8706581077
C        1.0042181271   -3.4868661606   -1.8597472090
C        2.3018962728    1.6374891906    0.5705901961
C        1.0684362295   -3.1764234084    0.3602748619
C        0.3463587292   -2.8394739172   -0.7468406872
C        0.1758630837    0.0483561958   -0.1412410360
C        0.1099773727    1.0081942491    0.9134691092
C        2.0872963620   -4.1370615402   -1.3391411732
C       -0.9420306558   -2.0837557990   -0.7849409179
C       -2.2392644117   -0.0645924152   -0.1387277885
C       -2.1798992520    0.3608084110    1.3300079926
N        1.1619737760    1.7677976058    1.2558368054
N       -0.9738260865   -0.7212094687   -0.4560735338
O       -2.0006725493   -2.6673462019   -1.0039991188
O        2.1514069320   -3.9483409019    0.0180544654
O       -1.0562922200    1.2122509198    1.6262010842
Br       3.3312783226   -5.1751641731   -2.3467242110
H        3.3814670001    0.7019213880   -1.0281758747
H        1.4642913068   -0.7108600686   -1.7227754915
H        0.6942324170   -3.4796852688   -2.8994225521
H        3.1485476908    2.2533681280    0.8511954583
H        0.8205254891   -2.8811705431    1.3738287053
H       -3.1035581503   -0.7184719750   -0.2913381199
H       -2.3725518285    0.8129280969   -0.7797998919
H       -3.1043777869    0.8876390391    1.5854550358
H       -2.1236074536   -0.5323220028    1.9606120659
27   

C        2.4465558961    0.6688633445   -0.5517158028
C        1.3511232094   -0.1112432692   -0.8984797577
C        0.9548067999   -3.3909698483   -1.8470172829
C        2.3461511387    1.5711112739    0.5054903195
C        0.9707426780   -3.3846212515    0.3945674313
C        0.2776698084   -2.8912907385   -0.6699280488
C        0.1750927031    0.0193803790   -0.1516142983
C        0.1468945591    0.9953814673    0.8905032929
C        2.0216561450   -4.1159612391   -1.3966901816
C       -1.0047449091   -2.1208092699   -0.6272724720
C       -2.2360568189   -0.0230436302   -0.1241255083
C       -2.1584525004    0.4214743970    1.3376306804
N        1.2203043072    1.7364854992    1.2059527026
N       -0.9958101321   -0.7315595162   -0.4305167367
O       -2.0853172415   -2.7023094449   -0.6733534962
O        2.0556363900   -4.1143990799   -0.0257294827
O       -1.0039331444    1.2369842932    1.6171842512
Br       3.2829439702   -5.0160429163   -2.5099042667
H        3.3788895840    0.5914910487   -1.0975304710
H        1.4189021183   -0.7841456483   -1.7440810667
H        0.6702494397   -3.2400671986   -2.8829320589
H        3.2106006433    2.1713408317    0.7649037091
H        0.7011920473   -3.2284477194    1.4332201603
H       -3.1258829387   -0.6427691659   -0.2723210523
H       -2.3346757077    0.8498271254   -0.7777469544
H       -3.0627618876    0.9852353981    1.5862593862
H       -2.1329599149   -0.4636349420    1.9814328437
27   

C        2.2240205068    1.6210838166   -0.0995977971
C        1.5560584854    0.4458028140    0.2187981461
C        1.0652362451   -1.6666911461   -2.3015766107
C        1.4983155320    2.7432713027   -0.4953598477
C        2.0106590930   -2.8991593359   -0.6836494761
C        0.8692632937   -2.2134426087   -0.9767355599
C        0.1611887065    0.4211442778    0.1095311337
C       -0.5055613181    1.6255129899   -0.2674128227
C        2.3086710671   -2.0668805622   -2.7008763736
C       -0.3122911924   -2.0128148807   -0.0843297102
C       -1.9322639502   -0.4354659924    0.9457382053
C       -2.6275771437    0.4885002068   -0.0569656305
N        0.1640181323    2.7485240083   -0.5704378740
N       -0.6057147991   -0.7331354752    0.4114924107
O       -1.1123461569   -2.9198301643    0.1307817775
O        2.9051868371   -2.8219532934   -1.7225712040
O       -1.8850673805    1.6951898550   -0.3203017613
Br       3.1144928088   -1.6318334012   -4.3745056733
H        3.3038200529    1.6806845968   -0.0396354812
H        2.1162866269   -0.4179296700    0.5551537291
H        0.3718158318   -1.0549882645   -2.8691547840
H        2.0345035986    3.6520915229   -0.7431683194
H        2.1934130994   -3.4260274572    0.2463576654
H       -1.8384678453    0.0639452123    1.9155273072
H       -2.5392600828   -1.3333820899    1.0974658851
H       -2.7755727996   -0.0502035039   -0.9986131999
H       -3.6157901193    0.7547196571    0.3301855390
27   

C        2.1173029232    1.7050625776   -0.3748033563
C        1.4903543751    0.5031898262   -0.0732534549
C        0.8148837533   -1.3976079231   -2.5511662074
C        1.3514450732    2.8494500126   -0.5891033206
C        1.7751605004   -2.9532407808   -1.2477093795
C        0.6989997579   -2.1155184366   -1.2998871418
C        0.0917570400    0.4759257029   -0.0152743054
C       -0.6127789268    1.7014042356   -0.2121406255
C        1.9528090725   -1.8571707067   -3.1510759624
C       -0.3403489719   -1.9698123172   -0.2406036901
C       -1.8971444999   -0.4665143248    0.9828957938
C       -2.6960683462    0.5332212202    0.1431453380
N        0.0177926485    2.8499434519   -0.5032463190
N       -0.6327335438   -0.7049038542    0.2915097420
O       -1.0294220677   -2.9255795242    0.1109736875
O        2.5568739566   -2.8085629250   -2.3677231828
O       -1.9880608160    1.7652569157   -0.0934535314
Br       2.6209585388   -1.2574513525   -4.8343791299
H        3.1966124020    1.7676527732   -0.4404691609
H        2.0863062048   -0.3807489955    0.1212017196
H        0.1420742899   -0.6402033049   -2.9397934992
H        1.8557166973    3.7792614958   -0.8258075904
H        1.9889508878   -3.6348972871   -0.4317504747
H       -1.7042725823   -0.0535002356    1.9783190491
H       -2.4858915183   -1.3799378906    1.1124043678
H       -2.9430698052    0.0760006060   -0.8205122830
H       -3.6377078858    0.7552770012    0.6544114271
27   

C        2.0315359806    2.2310342492    0.4006915115
C        1.5858827004    0.9195287715    0.4996542418
C        1.8425916596   -0.8168882342   -2.0658995558
C        1.1289373702    3.2459584647    0.0884215781
C        2.6322404356   -2.5340160297   -0.8506429574
C        1.5436619145   -1.7172730717   -0.9719578377
C        0.2325419376    0.6545391052    0.2576285659
C       -0.6295004654    1.7574749442   -0.0188933051
C        3.0906302154   -1.1541582516   -2.5073182649
C        0.3290972189   -1.8118124319   -0.1172267022
C       -1.7098575801   -0.6947645938    0.7615248922
C       -2.4927507575    0.2302917693   -0.1740724722
N       -0.1725416470    3.0161935547   -0.1106707531
N       -0.3103070071   -0.6529287414    0.3469618905
O       -0.1856667723   -2.9017984157    0.1307515879
O        3.5930750461   -2.1997597761   -1.7737866559
O       -1.9892627807    1.5798588780   -0.1882291124
Br       4.0138338737   -0.2930867068   -3.9376859097
H        3.0725764885    2.4781812486    0.5689661205
H        2.2809548052    0.1320095549    0.7682686317
H        1.2111836959   -0.0279773123   -2.4615668004
H        1.4929437244    4.2640816597    0.0123131933
H        2.7268811065   -3.3348185586   -0.1252395842
H       -1.8018342048   -0.3506415317    1.7967880765
H       -2.1336408570   -1.7023804021    0.7063510486
H       -2.4535474271   -0.1719414736   -1.1915871304
H       -3.5423067039    0.2441162372    0.1352159802
27   

C        2.2407970909    1.7141410840    0.3008470807
C        1.5917992708    0.5141745494    0.5608382759
C        1.9438691484   -1.6859268000   -1.5296255584
C        1.5484140993    2.7548373174   -0.3159790030
C        2.0959533606   -3.4443754315   -0.1382302824
C        1.3037925951   -2.3655411756   -0.4213422423
C        0.2545355965    0.3814400694    0.1691512641
C       -0.3901432801    1.5095467793   -0.4197484277
C        3.0791463408   -2.3931809380   -1.8074925585
C        0.0222769917   -2.1031460243    0.2842891723
C       -1.9146145414   -0.5844936245    0.6208932490
C       -2.4339937317    0.2324131551   -0.5657673006
N        0.2613124594    2.6575849419   -0.6631142539
N       -0.4869405663   -0.8026095252    0.4084435797
O       -0.6524201854   -3.0356222783    0.7230644259
O        3.1944257664   -3.4684641556   -0.9628945795
O       -1.7313805166    1.4765962149   -0.7503359008
Br       4.3305498559   -1.9554109016   -3.1794491358
H        3.2786157141    1.8555098844    0.5767655977
H        2.1186674227   -0.2900638845    1.0628294673
H        1.5995109330   -0.7973755521   -2.0488192500
H        2.0698073388    3.6840494654   -0.5149281896
H        1.8861493700   -4.1824730077    0.6285612641
H       -2.0728875217   -0.0366446119    1.5555040076
H       -2.4755574662   -1.5223503153    0.6831642755
H       -2.3409479682   -0.3636724247   -1.4793741630
H       -3.4974701106    0.4418661688   -0.4154424785
27   

C        2.0926423877    2.0891501624    0.5865040599
C        1.5539472822    0.8216008936    0.7655931513
C        2.1850588485   -1.2428652077   -1.3676160324
C        1.3159851647    3.0957884143    0.0147265750
C        2.2635820606   -3.2101070061   -0.2842429381
C        1.5226408873   -2.0611816056   -0.3701565069
C        0.2414867577    0.5898443238    0.3387140176
C       -0.4972784020    1.6862620080   -0.1967448930
C        3.2849547391   -1.9452422962   -1.7715041731
C        0.2394416862   -1.9101261312    0.3632556101
C       -1.8340294381   -0.5905727506    0.7101500329
C       -2.4167700084    0.2410854042   -0.4366562911
N        0.0487122094    2.9010991981   -0.3631316904
N       -0.3913238343   -0.6665129377    0.5041143142
O       -0.3231616892   -2.8980220499    0.8392607729
O        3.3567342445   -3.1466152741   -1.1136798226
O       -1.8268341850    1.5508829231   -0.5479458221
Br       4.5394444284   -1.3519275239   -3.0808665753
H        3.1082122018    2.3093611973    0.8919753239
H        2.1439068113    0.0403271032    1.2330861993
H        1.8760939229   -0.2741072835   -1.7461777688
H        1.7516118920    4.0789837120   -0.1209810768
H        2.0210908423   -4.0599200592    0.3450852403
H       -2.0490550405   -0.1132975364    1.6717486746
H       -2.3055133894   -1.5785461162    0.7113691852
H       -2.2655421214   -0.2936845814   -1.3799156197
H       -3.4956198423    0.3468667461   -0.2869437095
27   

C        2.3488988980    1.8457774232   -0.4836965007
C        1.5361547541    0.7899000209   -0.8766160356
C        2.1647753981   -1.9203341166    0.3418845160
C        1.9240155503    2.7056985377    0.5286537671
C        1.3887264879   -3.6127286648   -0.9143624988
C        1.0961087892   -2.3214185667   -0.5555801647
C        0.3162695180    0.6104558196   -0.2163924652
C       -0.0637483990    1.5625894697    0.7747088397
C        3.0297429642   -2.9755559184    0.4082424127
C       -0.2114801005   -1.7240833468   -0.9375628832
C       -1.9885521092   -0.0786277013   -0.4037700447
C       -2.1674102031    0.4045239300    1.0394024512
N        0.7427916704    2.5713466297    1.1399366214
N       -0.5811631117   -0.4230804090   -0.5727723460
O       -1.0283310265   -2.3917337384   -1.5756158390
O        2.5799663642   -4.0157354014   -0.3625647551
O       -1.3018425092    1.5036919955    1.3860941990
Br       4.6254814853   -3.0154528410    1.4535217016
H        3.3076471024    2.0156127600   -0.9581887262
H        1.8456493067    0.1284451612   -1.6793380613
H        2.2682982616   -0.9926809978    0.8936643511
H        2.5708660509    3.5227555243    0.8267581046
H        0.7654245923   -4.2424223961   -1.5406081750
H       -2.6484087829   -0.9339935958   -0.5811635350
H       -2.2663325218    0.7136170481   -1.1065842353
H       -3.2081724521    0.7092893201    1.1859943083
H       -1.9683281780   -0.4274239173    1.7226344505
27   

C        2.3750418545    1.7406368641   -0.4535417064
C        1.5419436930    0.6953406706   -0.8306744566
C        2.0452116231   -1.9952590088    0.4807015385
C        1.9546696646    2.6414110944    0.5238574375
C        1.4925105914   -3.5225807487   -1.0722985548
C        1.0552101383   -2.3484953684   -0.5185140411
C        0.3036120925    0.5673047551   -0.1913962709
C       -0.0663401462    1.5570287061    0.7668551846
C        3.0110178443   -2.9596166503    0.4217925934
C       -0.2666874435   -1.7698734242   -0.8720753403
C       -2.0168929186   -0.0814905787   -0.3750847620
C       -2.1926057802    0.4486003505    1.0512789893
N        0.7597168566    2.5554911799    1.1166064400
N       -0.6150801697   -0.4557535557   -0.5315164167
O       -1.1103521121   -2.4572747123   -1.4506326085
O        2.6969816969   -3.8974461416   -0.5285048505
O       -1.3122515781    1.5453837027    1.3643032494
Br       4.5715619125   -3.0107682778    1.5182781749
H        3.3466579915    1.8705467050   -0.9142720177
H        1.8519014658    0.0057078921   -1.6086926931
H        2.0316467887   -1.1509258500    1.1620129068
H        2.6173658505    3.4502562640    0.8092738265
H        0.9610806713   -4.0872184275   -1.8311160805
H       -2.6921435818   -0.9295610780   -0.5274295946
H       -2.2796177712    0.6934956134   -1.1024574288
H       -3.2290680685    0.7732384558    1.1849956434
H       -2.0073810295   -0.3641810242    1.7609680652
27   

C        2.4641031322    1.3595791702   -0.3494424330
C        1.5432632724    0.4007343028   -0.7511627830
C        1.7875277550   -2.3404898530    0.5763701209
C        2.1236783678    2.2682988139    0.6511806565
C        1.3228314152   -3.6176222767   -1.2136926912
C        0.8356822240   -2.5612609668   -0.4937184315
C        0.2975868672    0.3649067746   -0.1137180905
C        0.0164717555    1.3570245252    0.8720466354
C        2.7806281240   -3.2620101191    0.4007785458
C       -0.4657813573   -1.9123995073   -0.8005690969
C       -2.0704842862   -0.0854252739   -0.2923925978
C       -2.1913572058    0.4195550140    1.1483135645
N        0.9259129657    2.2712828481    1.2444213724
N       -0.7053754229   -0.5706789701   -0.4712070474
O       -1.3866784194   -2.5618310757   -1.2979353571
O        2.5189818075   -4.0481932254   -0.6929944755
O       -1.2228423586    1.4338660190    1.4782487148
Br       4.3163010637   -3.4394944433    1.5188686887
H        3.4437471781    1.4154724417   -0.8080894473
H        1.7940350565   -0.2928238721   -1.5464424601
H        1.7327994119   -1.6007308317    1.3684746882
H        2.8544287540    3.0086555929    0.9557177379
H        0.8325527095   -4.0586551045   -2.0750241588
H       -2.8171814764   -0.8676662181   -0.4616695044
H       -2.2719917570    0.7282948990   -0.9966223095
H       -3.1970112589    0.8231054763    1.3008194995
H       -2.0664355069   -0.4236807702    1.8353360295
27   

C        2.4178633638    1.6201614080   -0.2759094740
C        1.5957090431    0.5608861065   -0.6369642699
C        1.8398091791   -2.0311722487    1.0672401617
C        1.9366605994    2.6071446167    0.5822490005
C        1.8319544537   -3.2759625070   -0.8033629504
C        1.0768531548   -2.3677677302   -0.1165150068
C        0.3025019475    0.5074063657   -0.1028307068
C       -0.1220247474    1.5791603262    0.7382124413
C        2.9972232563   -2.7530512735    0.9931171381
C       -0.2577527185   -1.8825736840   -0.5610110395
C       -2.0114789494   -0.1283521786   -0.4042285067
C       -2.2806961566    0.5207470184    0.9559748451
N        0.6937681299    2.5909950457    1.0733342834
N       -0.6080014916   -0.5310336834   -0.4270952171
O       -1.1085647162   -2.6669856154   -0.9798521902
O        3.0138857408   -3.5179145758   -0.1463982096
O       -1.4101701052    1.6339207042    1.2349619925
Br       4.4002381199   -2.7047523771    2.2849824659
H        3.4287920924    1.6938610271   -0.6576875899
H        1.9591129422   -0.1933761497   -1.3257398246
H        1.5596122728   -1.3432943757    1.8583879145
H        2.5915554109    3.4261950154    0.8563579124
H        1.5406995776   -3.7409715538   -1.7389839316
H       -2.6925252985   -0.9746513817   -0.5380280687
H       -2.2064651922    0.5873365619   -1.2094673310
H       -3.3194633462    0.8633847223    0.9875469231
H       -2.1566059446   -0.2303427004    1.7428067273
27   

C        2.4516105288    1.2269470361    0.3477019162
C        1.5720376643    0.2347689255   -0.0651345343
C        0.9878009117   -2.0970262164    2.0393593075
C        1.9573604899    2.3801777173    0.9542270939
C        1.4097770378   -3.4085873868    0.2666026006
C        0.5313179284   -2.4659790496    0.7164593656
C        0.2031571613    0.4185029074    0.1641534013
C       -0.2197467882    1.6452057338    0.7585087246
C        2.1062319958   -2.8436384803    2.2794224133
C       -0.6277457944   -1.9230713458   -0.0486464584
C       -2.0653437688    0.0354712759   -0.5756971744
C       -2.5120987781    0.9020490213    0.6042982183
N        0.6517296486    2.5882523995    1.1492710546
N       -0.7678289644   -0.5386674871   -0.2287235679
O       -1.5308834224   -2.6584041054   -0.4430041028
O        2.3829165320   -3.6514507989    1.2049268760
O       -1.5595750221    1.9278163892    0.9444145621
Br       3.1486159816   -2.7706619675    3.8755759182
H        3.5192032853    1.1199217783    0.1996151770
H        1.9531035047   -0.6496263436   -0.5620886447
H        0.5419230938   -1.3699402166    2.7101099029
H        2.6570370234    3.1442240319    1.2729030857
H        1.3527847629   -3.8948910923   -0.7010802171
H       -2.8255550243   -0.7272322062   -0.7708899769
H       -1.9714563780    0.6474436087   -1.4786492796
H       -3.4696429602    1.3713994660    0.3589340723
H       -2.6717752559    0.2629740886    1.4788192853
27   

C        2.4934897933    1.2183871867   -0.1360597762
C        1.5545663595    0.2843756812   -0.5542895370
C        1.2652668593   -2.4187199761    1.3542942721
C        2.1119898583    2.2426197448    0.7288444328
C        1.5458415046   -3.2071001642   -0.7267317654
C        0.6610800771   -2.5118927374    0.0432518535
C        0.2459975986    0.3919944567   -0.0703570519
C       -0.0677838041    1.4926068539    0.7824299341
C        2.4654921780   -3.0652540603    1.2695202704
C       -0.6336252736   -1.9108334344   -0.3984702757
C       -2.1095424408    0.0860023070   -0.4850259220
C       -2.3600592021    0.7331938102    0.8791521744
N        0.8589573222    2.3816940147    1.1722593317
N       -0.7792433626   -0.5156278153   -0.4399066177
O       -1.6230648122   -2.6072845595   -0.6105624752
O        2.6567770194   -3.5544355728    0.0017614585
O       -1.3566069868    1.7044683971    1.2349959539
Br       3.7112259062   -3.2545509571    2.7019857403
H        3.5201287354    1.1659026983   -0.4771926398
H        1.8422354329   -0.4947353839   -1.2494974239
H        0.8573703648   -1.9293281600    2.2325196114
H        2.8571546312    2.9620232965    1.0482932156
H        1.3991080291   -3.4454008301   -1.7743896196
H       -2.8978377757   -0.6437599386   -0.6942119744
H       -2.1476294328    0.8441005158   -1.2740411933
H       -3.3399556420    1.2200084896    0.8676945893
H       -2.3874840726   -0.0469635287    1.6468888122
27   

C        2.3742124347    1.0106745594    0.2920804904
C        1.5191976501   -0.0444867857    0.5825434755
C        1.8559348368   -3.4650505131    0.5832674002
C        1.8987094663    2.1103272993   -0.4195929620
C        1.3593169734   -2.8847797976   -1.5242594599
C        0.8600787442   -2.8361563108   -0.2572634838
C        0.1981278228    0.0214555478    0.1260965279
C       -0.2157831027    1.2020745087   -0.5625223436
C        2.8900181108   -3.8100839886   -0.2402613556
C       -0.5006478667   -2.3680094688    0.1542464646
C       -2.1201894071   -0.5190828115    0.5126474399
C       -2.4467224155    0.2890162983   -0.7446129825
N        0.6311568456    2.2078144723   -0.8310963679
N       -0.7493811520   -1.0047874398    0.3746106083
O       -1.4402620728   -3.1560445216    0.2176174318
O        2.6099445441   -3.4522757367   -1.5341795969
O       -1.5249904106    1.3729224605   -0.9719479084
Br       4.4942527542   -4.6776894628    0.3200345169
H        3.4069771657    0.9948962508    0.6181085806
H        1.8800192697   -0.8806626874    1.1682504256
H        1.7953671049   -3.6463632697    1.6511255061
H        2.5790328106    2.9248523746   -0.6399402321
H        0.8394744278   -2.5295722468   -2.4071176341
H       -2.1995455305    0.1175939619    1.3998877813
H       -2.8472732594   -1.3290416417    0.6272259847
H       -2.4335755233   -0.3771046782   -1.6133245405
H       -3.4591912023    0.6940968690   -0.6538674680
27   

C        2.3640862269    1.0448699896    0.2493009726
C        1.5163347312   -0.0099384585    0.5608950368
C        1.8408211952   -3.5912256801    0.5773945868
C        1.8794757222    2.1298609489   -0.4786095275
C        1.3704276319   -2.7278819763   -1.4382702664
C        0.8732864465   -2.8208125590   -0.1714222059
C        0.1919332648    0.0420693095    0.1093604363
C       -0.2307595849    1.2075533215   -0.5984976966
C        2.8581255852   -3.8750801583   -0.2894334057
C       -0.4637155455   -2.3542933068    0.3054128386
C       -2.1280735156   -0.5183270914    0.4965350544
C       -2.4493903132    0.2683925998   -0.7760663111
N        0.6099638780    2.2127510664   -0.8877784334
N       -0.7480137626   -0.9838417614    0.3872984600
O       -1.3606336980   -3.1623726954    0.5332638816
O        2.5947345364   -3.3436158357   -1.5263468768
O       -1.5415671756    1.3625871148   -1.0077882244
Br       4.4204061511   -4.8803352934    0.1454358725
H        3.3981572954    1.0402323779    0.5716749301
H        1.8854289900   -0.8363674900    1.1574273634
H        1.7704086642   -3.9031921866    1.6141121950
H        2.5543702338    2.9444610381   -0.7148473675
H        0.8674280253   -2.2400516426   -2.2658802080
H       -2.2331947622    0.1269821860    1.3747735573
H       -2.8429881380   -1.3400510942    0.6038732452
H       -2.4145676899   -0.4089091231   -1.6354582850
H       -3.4690110684    0.6592398777   -0.7047904854
27   

C        2.3411769934    1.1573238807    0.2379922237
C        1.5410756368    0.0701515627    0.5641011921
C        1.9141765269   -3.7086749064    0.5202844054
C        1.8076111706    2.2122532029   -0.5002010625
C        1.5425922255   -2.5238128568   -1.3466547309
C        0.9999725157   -2.7914229945   -0.1217265165
C        0.2141481728    0.0608030087    0.1165521562
C       -0.2613841633    1.1984982055   -0.6021548569
C        2.9465542667   -3.8990898205   -0.3540976825
C       -0.3251580783   -2.3569610362    0.4030609338
C       -2.0785915532   -0.5993991851    0.5181975011
C       -2.4360108312    0.1595031862   -0.7621255436
N        0.5345117214    2.2351592086   -0.9063937590
N       -0.6784768577   -1.0006713938    0.4135102551
O       -1.1619095309   -3.1917576508    0.7413747121
O        2.7439513001   -3.1709530745   -1.4988497692
O       -1.5791743648    1.2913072182   -1.0073344488
Br       4.4527911311   -5.0284205210   -0.0436073048
H        3.3753629540    1.2014516243    0.5571549099
H        1.9469044764   -0.7350755019    1.1671012041
H        1.7973555853   -4.1734972093    1.4937752502
H        2.4457032398    3.0527615470   -0.7477156711
H        1.0865963283   -1.8920007884   -2.1009768874
H       -2.2152782192    0.0476592473    1.3907738521
H       -2.7529882499   -1.4542533935    0.6297298119
H       -2.3710882312   -0.5242549401   -1.6146481419
H       -3.4724002582    0.5041234256   -0.6939609035
27   

C        2.3234813795    1.2304483304    0.2731011788
C        1.5415233494    0.1364713426    0.6206531158
C        1.8347788485   -3.8714454291    0.4977177738
C        1.7807265368    2.2482135427   -0.5100936298
C        1.6851612884   -2.3900706727   -1.1768883568
C        1.0395456683   -2.7889220987   -0.0376400848
C        0.2248537185    0.0837923520    0.1484199156
C       -0.2636638120    1.1860236775   -0.6145204920
C        2.9018898225   -4.0229637400   -0.3413634505
C       -0.2665460633   -2.3354370951    0.5099079826
C       -2.0557939921   -0.6123986408    0.5438521939
C       -2.4143381024    0.0956356344   -0.7655357611
N        0.5151966607    2.2289784811   -0.9399739439
N       -0.6470593004   -0.9872821009    0.4644857566
O       -1.0741326823   -3.1634821626    0.9297254437
O        2.8352101505   -3.1152171407   -1.3670609480
O       -1.5765747042    1.2348803681   -1.0427734636
Br       4.2847411755   -5.3213623263   -0.1349795116
H        3.3501809000    1.3090753611    0.6094524857
H        1.9504934797   -0.6430781759    1.2553283162
H        1.6167684728   -4.4633658093    1.3808562042
H        2.4046464917    3.0941388597   -0.7747242288
H        1.3358342979   -1.6142392704   -1.8493728823
H       -2.2147429184    0.0602895015    1.3929702714
H       -2.7127702166   -1.4778086090    0.6765778628
H       -2.3278458754   -0.6158885091   -1.5931171277
H       -3.4578515999    0.4219662075   -0.7194882953
27   

C        2.3248868761    1.2860462996    0.2623141422
C        1.5567046642    0.1861848202    0.6227850952
C        1.7187392859   -4.0226434760    0.3245401190
C        1.7737429767    2.2806069706   -0.5453165266
C        1.8085125264   -2.3033146436   -1.1065353859
C        1.0554591213   -2.7994676703   -0.0735383783
C        0.2471855745    0.1047678391    0.1369595818
C       -0.2534734635    1.1859150408   -0.6471443382
C        2.8147199117   -4.1567630597   -0.4786978869
C       -0.2168325830   -2.3180848574    0.5247686698
C       -2.0201931175   -0.6121418711    0.5472842593
C       -2.3923905154    0.0675178064   -0.7739284482
N        0.5124119688    2.2341739526   -0.9857250716
N       -0.6085442903   -0.9736461617    0.4641604221
O       -0.9953176843   -3.1315269204    1.0235448904
O        2.8931542460   -3.1067485721   -1.3560066982
O       -1.5654244976    1.2076846681   -1.0809692903
Br       4.0578760787   -5.6026140547   -0.4083806250
H        3.3469282262    1.3876433152    0.6066724726
H        1.9682773462   -0.5783887635    1.2742454202
H        1.3974463794   -4.7103609759    1.1005202365
H        2.3869437138    3.1308872750   -0.8208412134
H        1.5810022007   -1.4070045591   -1.6726259272
H       -2.1806713706    0.0746208059    1.3847890597
H       -2.6666988975   -1.4822327102    0.6998331058
H       -2.3056423579   -0.6599619453   -1.5875283396
H       -3.4382618034    0.3862330184   -0.7277789165
27   

C        2.2772112476    1.3652826101    0.3159030433
C        1.5272174699    0.2537264633    0.6803106729
C        1.5718502024   -4.1351308924    0.1215575956
C        1.7249280838    2.3253663938   -0.5326454625
C        1.9465048221   -2.2315432402   -0.9905979282
C        1.0577642164   -2.8005211823   -0.1117688077
C        0.2380857951    0.1259067375    0.1539207276
C       -0.2702859346    1.1769019503   -0.6645209824
C        2.7133342967   -4.2589936977   -0.6160972898
C       -0.1921616792   -2.3076855345    0.5259105968
C       -2.0133749410   -0.6239671297    0.5537590470
C       -2.3897113578    0.0175307107   -0.7859817749
N        0.4781410329    2.2363561924   -1.0069504845
N       -0.5967486503   -0.9661917995    0.4800042579
O       -0.9485438457   -3.1192320802    1.0621617301
O        2.9636366723   -3.0995326793   -1.3004093784
O       -1.5736580690    1.1576695332   -1.1244776355
Br       3.8064810745   -5.8209184649   -0.6964958880
H        3.2855167066    1.5028076286    0.6872279929
H        1.9349390759   -0.4876090978    1.3606377316
H        1.1278975891   -4.8964598765    0.7556292491
H        2.3241160428    3.1842370557   -0.8123346690
H        1.8658647830   -1.2408126422   -1.4214178198
H       -2.1847910861    0.0812940297    1.3735850940
H       -2.6477813200   -1.4989444852    0.7277602149
H       -2.2946748092   -0.7307702067   -1.5795203290
H       -3.4389104268    0.3264962530   -0.7496842338
27   

C        2.2431353868    1.4644289156    0.3598313991
C        1.5129640190    0.3467835948    0.7467106108
C        1.4453633658   -4.2049261491   -0.0256016630
C        1.6985905175    2.3636366255   -0.5583377501
C        2.1135462997   -2.2182404607   -0.7984640626
C        1.0918125494   -2.7991277640   -0.0861505554
C        0.2560222177    0.1496800487    0.1688509382
C       -0.2532369624    1.1463262276   -0.7137689010
C        2.6255307342   -4.3545378635   -0.6929038371
C       -0.1399917539   -2.2859837211    0.5757855766
C       -1.9806064347   -0.6278544485    0.5584718629
C       -2.3486879687   -0.0607961587   -0.8175221120
N        0.4757733500    2.2122359201   -1.0773017441
N       -0.5580474487   -0.9489686794    0.5161801591
O       -0.8783715200   -3.0868508506    1.1523681256
O        3.0528971769   -3.1464777933   -1.1726365627
O       -1.5414881421    1.0693387977   -1.2096777198
Br       3.5537486630   -6.0046746090   -0.9309333427
H        3.2295110204    1.6536972764    0.7656328824
H        1.9103531629   -0.3493837058    1.4788868542
H        0.8767814878   -4.9931285506    0.4585878154
H        2.2824746848    3.2270591465   -0.8558334814
H        2.1909714523   -1.1772906665   -1.0815769989
H       -2.1725092100    0.1151330058    1.3395682894
H       -2.6031267909   -1.5029585169    0.7706777525
H       -2.2370652577   -0.8487249307   -1.5693930876
H       -3.4016424157    0.2372975344   -0.8082508777
