29   
Generated by ForceBalance from scan.xyz: Frame 1 of 24
C        1.2296530506    1.4417056465    0.5603916590
C       -1.1375099467    1.3297190190   -0.3078120478
C        0.4972433324   -1.2819927570   -1.2870192135
C       -0.8904636272   -2.8328109913   -0.0803846957
C       -2.3272008679    0.5406354918    0.2318762119
C        0.2139753817   -0.7128548130    0.1117793066
C       -1.0816133771   -1.4358150175    0.5115032661
C        1.1577111675    2.9732668493    0.6044274723
C        0.6289656267    3.5191694462    1.9198532299
N        0.1634923404   -2.7048485419   -1.1200372365
N        0.1115014410    0.7452172833    0.1864724655
O        2.2844918177    0.8892332113    0.8685183660
O       -2.2251739389   -0.8354800308   -0.1110650922
F        1.4724818505    3.2898590760    2.9453759141
F       -0.5769941375    2.9877374061    2.2635065524
F        0.4523714141    4.8642579137    1.8360686673
H       -1.1563005986    1.3077078381   -1.4053110432
H       -1.2312359989    2.3630387664    0.0188996042
H       -0.1291037731   -0.7705902938   -2.0338910481
H        1.5473429702   -1.1508637759   -1.5637315131
H       -0.5674205265   -3.5376460316    0.6943454927
H       -1.8485942551   -3.1823558847   -0.4796770320
H       -2.3869716164    0.6610314722    1.3240487339
H       -3.2539111563    0.9083812958   -0.2157062191
H        1.0151335638   -1.0172390479    0.7856855387
H       -1.2284650958   -1.4421773231    1.6001063199
H        0.5752930187    3.4190899786   -0.2030174278
H        2.1848008612    3.3279911896    0.5112568337
H       -0.1292892972   -3.1222509768   -1.9967419389
29   
Generated by ForceBalance from scan.xyz: Frame 2 of 24
C        1.2020210998    1.4135176048    0.5311392889
C       -1.1627808631    1.3121519830   -0.3410468717
C        0.4268214891   -1.3165062577   -1.3459579953
C       -0.9397574861   -2.8509103952   -0.0948178026
C       -2.3446635237    0.5346553314    0.2327886612
C        0.1840895868   -0.7378355181    0.0565284440
C       -1.1061643270   -1.4493458987    0.4931887200
C        1.1310612582    2.9447301647    0.5568080141
C        0.5611041376    3.5128048916    1.8506433872
N        0.0865899363   -2.7358423383   -1.1633440133
N        0.0942916683    0.7210330001    0.1227359058
O        2.2462907735    0.8602495732    0.8733080105
O       -2.2602481556   -0.8439581766   -0.1049456312
F        1.4865899634    3.5818723857    2.8284684167
F       -0.4856432328    2.7910517927    2.3323931261
F        0.1007625188    4.7784638543    1.6505039203
H       -1.2099691267    1.2859417033   -1.4374206834
H       -1.2404584480    2.3486564816   -0.0189247665
H       -0.2140327815   -0.8040103244   -2.0795786556
H        1.4705382046   -1.1951890332   -1.6505075028
H       -0.6001469066   -3.5528692791    0.6754138468
H       -1.9101881772   -3.1972209376   -0.4662020530
H       -2.3764535779    0.6614984603    1.3252964645
H       -3.2796207129    0.9062939201   -0.1940361352
H        0.9999336688   -1.0426022687    0.7122410946
H       -1.2259416306   -1.4478714581    1.5850795928
H        0.5820248645    3.3836666320   -0.2769345540
H        2.1612493890    3.2958221758    0.4894459781
H       -0.2332879080   -3.1546701378   -2.0298256299
29   
Generated by ForceBalance from scan.xyz: Frame 3 of 24
C        1.2434297557    1.3921171472    0.5705709183
C       -1.1160152850    1.3312052284   -0.3134490899
C        0.4363590526   -1.3124536298   -1.3400464320
C       -0.9543172356   -2.8366011951   -0.1032611179
C       -2.3096571580    0.5665244394    0.2535550537
C        0.2009947228   -0.7414111565    0.0667874874
C       -1.0998373916   -1.4377753325    0.4968477038
C        1.1837186084    2.9241231074    0.6094673911
C        0.5125912381    3.5000167790    1.8575835012
N        0.0764019508   -2.7282324661   -1.1682806738
N        0.1319891371    0.7175179101    0.1445923182
O        2.2806376470    0.8251563008    0.9112449530
O       -2.2445965922   -0.8101023688   -0.0964645749
F        1.4139693526    3.8719591260    2.7910534332
F       -0.3459499929    2.6315882462    2.4529019270
F       -0.2148426234    4.6092876026    1.5474056248
H       -1.1638385292    1.3160126520   -1.4100149399
H       -1.1784002261    2.3670450649    0.0153158164
H       -0.1971121088   -0.7853358480   -2.0697583741
H        1.4817505021   -1.2034062471   -1.6435284572
H       -0.6278949746   -3.5508560729    0.6613319283
H       -1.9293258687   -3.1638999214   -0.4799564639
H       -2.3399668873    0.6843554882    1.3470527566
H       -3.2390209675    0.9551299192   -0.1703280372
H        1.0118250169   -1.0628677475    0.7208676746
H       -1.2201108833   -1.4439113885    1.5886363608
H        0.7028143567    3.3606586776   -0.2666953547
H        2.2195232440    3.2631360979    0.6187408581
H       -0.2467061539   -3.1368492927   -2.0384484315
29   
Generated by ForceBalance from scan.xyz: Frame 4 of 24
C        1.2694408638    1.3963004236    0.5699384777
C       -1.0890731535    1.3553223167   -0.3175612556
C        0.4176975357   -1.3009681182   -1.3638431354
C       -0.9662300735   -2.8106728451   -0.1012543994
C       -2.2816692723    0.6068880236    0.2730403775
C        0.2131000806   -0.7273039222    0.0466272619
C       -1.0872421958   -1.4102503337    0.5003097385
C        1.2143802033    2.9289148686    0.6351533675
C        0.4525015335    3.4887078644    1.8415006851
N        0.0452742304   -2.7128106661   -1.1856788970
N        0.1590002945    0.7319105138    0.1265296974
O        2.3045719735    0.8217369866    0.9038657491
O       -2.2364458482   -0.7718211701   -0.0728962908
F        1.2697424841    4.1546162741    2.6859803603
F       -0.1734938122    2.5291977249    2.5689379175
F       -0.5148865963    4.3681137666    1.4528155641
H       -1.1528408024    1.3286511503   -1.4129576403
H       -1.1359922776    2.3961184303   -0.0024406437
H       -0.2222352949   -0.7674206612   -2.0830668581
H        1.4588297666   -1.2034122003   -1.6854526426
H       -0.6321001273   -3.5273933384    0.6576985672
H       -1.9510273275   -3.1293006675   -0.4594078913
H       -2.2927766869    0.7292322537    1.3664328906
H       -3.2139105505    1.0031830485   -0.1371718914
H        1.0320640898   -1.0564374320    0.6865017560
H       -1.1877510006   -1.4143608536    1.5940875771
H        0.7879067539    3.3663953902   -0.2685284027
H        2.2489142532    3.2589316490    0.7172137445
H       -0.2989576942   -3.1171299987   -2.0497206001
29   
Generated by ForceBalance from scan.xyz: Frame 5 of 24
C        1.2907996275    1.4090175577    0.5541446504
C       -1.0655396151    1.3756659021   -0.3464309619
C        0.4205535198   -1.2929957597   -1.3704224724
C       -0.9713095377   -2.7853038722   -0.0947313192
C       -2.2639018317    0.6442885341    0.2533523260
C        0.2221967708   -0.7093819196    0.0367381450
C       -1.0822341864   -1.3801444329    0.4975716761
C        1.2441432662    2.9416090364    0.6533339841
C        0.4846835809    3.4716532887    1.8729506214
N        0.0370942599   -2.7009112904   -1.1832414072
N        0.1765814541    0.7505420686    0.1115759650
O        2.3270009342    0.8280266891    0.8727280272
O       -2.2292213492   -0.7387699971   -0.0769841937
F        1.2190532119    4.3775545436    2.5571629831
F        0.1429568120    2.4946260041    2.7471809927
F       -0.6760426520    4.0958686470    1.5184146523
H       -1.1263011947    1.3267084516   -1.4411246472
H       -1.1044082267    2.4219890842   -0.0516422723
H       -0.2156379712   -0.7595166248   -2.0928524468
H        1.4621557181   -1.2056696165   -1.6933892340
H       -0.6387068386   -3.4986150156    0.6681139189
H       -1.9589514408   -3.1009530631   -0.4475622747
H       -2.2742391774    0.7789668853    1.3455723840
H       -3.1934533191    1.0425902564   -0.1609852268
H        1.0399966594   -1.0410975857    0.6766846231
H       -1.1797628992   -1.3760137090    1.5916293436
H        0.8190292778    3.4020624174   -0.2398714731
H        2.2815655218    3.2582139157    0.7479108313
H       -0.3135379758   -3.1068053109   -2.0439462154
29   
Generated by ForceBalance from scan.xyz: Frame 6 of 24
C        1.0871208555    1.5627065820    0.1721384364
C       -1.3599953783    1.1209826748   -0.2557688657
C        0.4006445052   -1.3419671064   -1.3812246630
C       -0.5607383969   -2.9591887303    0.1192685899
C       -2.3375190732    0.2393176471    0.5162745323
C        0.2862086402   -0.7190834803    0.0187612138
C       -0.8248067212   -1.5574910293    0.6696421451
C        0.8336369549    3.0773829639    0.1979678251
C        0.3701354033    3.5973818280    1.5565958576
N        0.2712202150   -2.7802899624   -1.0989647099
N        0.0161195146    0.7189685748    0.0471125119
O        2.2428815930    1.1571030532    0.2800124432
O       -2.1219334535   -1.1361282920    0.2271147514
F        0.8760414108    4.8286762586    1.8039414849
F        0.7506291130    2.7997637342    2.5785963926
F       -0.9887725586    3.7072067834    1.6315549809
H       -1.5543409286    1.0182767640   -1.3314361613
H       -1.5270705592    2.1575841557    0.0274618997
H       -0.3970571085   -0.9517248768   -2.0314159020
H        1.3671374368   -1.1127738695   -1.8391565421
H       -0.0195991550   -3.5643955268    0.8557506426
H       -1.5195336288   -3.4480824328   -0.0834214044
H       -2.2335492338    0.4255401346    1.5961557808
H       -3.3635931334    0.4663676060    0.2164815428
H        1.2199610733   -0.8849059881    0.5567120690
H       -0.7866581502   -1.5077569111    1.7663640705
H        0.1058891273    3.3934840296   -0.5512213496
H        1.7942198367    3.5413093864   -0.0213659818
H       -0.1214123600   -3.2783159476   -1.8903475269
29   
Generated by ForceBalance from scan.xyz: Frame 7 of 24
C        1.0595599997    1.5439174170    0.1846367240
C       -1.3852795294    1.1067739283   -0.2777266261
C        0.3843339366   -1.3614850010   -1.3660830887
C       -0.6020308773   -2.9721327489    0.1254528116
C       -2.3768583401    0.2317508816    0.4838043110
C        0.2510011079   -0.7344375033    0.0303922809
C       -0.8714369359   -1.5681597351    0.6674040915
C        0.8159111553    3.0601432927    0.2016022656
C        0.4156671788    3.5874199440    1.5713097670
N        0.2478856630   -2.7986505205   -1.0811305348
N       -0.0152066261    0.7047299510    0.0520021391
O        2.2109433269    1.1316297848    0.3088048844
O       -2.1610867041   -1.1457351459    0.2044676797
F        0.6556128055    4.9191256892    1.6601763392
F        1.0940010243    2.9920649521    2.5745289318
F       -0.9107444416    3.4060625986    1.8294541453
H       -1.5608131232    0.9959322811   -1.3558071540
H       -1.5560036874    2.1451263977   -0.0038962191
H       -0.4028021398   -0.9719632036   -2.0293623513
H        1.3579871886   -1.1356579595   -1.8103157870
H       -0.0727988111   -3.5759628333    0.8716434154
H       -1.5586872710   -3.4598824343   -0.0896839549
H       -2.2875779462    0.4232763842    1.5639717912
H       -3.3977539535    0.4604627262    0.1679207793
H        1.1765659398   -0.9019703324    0.5818059863
H       -0.8494037042   -1.5149134638    1.7644149423
H        0.0579218411    3.3803922594   -0.5148271856
H        1.7689226784    3.5205680134   -0.0574729562
H       -0.1340921394   -3.2984907360   -1.8765603706
29   
Generated by ForceBalance from scan.xyz: Frame 8 of 24
C        1.0665682717    1.5250793085    0.2168517233
C       -1.3728177550    1.1032004331   -0.2814599487
C        0.4013475010   -1.3678342571   -1.3669296767
C       -0.6113705126   -2.9842898285    0.0999158567
C       -2.3770073617    0.2242480249    0.4589713573
C        0.2518625022   -0.7494862600    0.0318341347
C       -0.8823238001   -1.5828825558    0.6477132989
C        0.8271136683    3.0410062891    0.2185770679
C        0.4537127455    3.5862252581    1.5855508726
N        0.2558592491   -2.8062412258   -1.0935746241
N       -0.0081474366    0.6907676423    0.0566983575
O        2.2130866472    1.1086817226    0.3709973903
O       -2.1633828137   -1.1513782577    0.1698165718
F        0.4037012803    4.9425305529    1.5580009496
F        1.3355964768    3.2334519352    2.5417924392
F       -0.7725968960    3.1573208172    1.9978402564
H       -1.5383959524    1.0091766924   -1.3627403623
H       -1.5413528930    2.1383003266    0.0063206912
H       -0.3756624877   -0.9705071148   -2.0375517887
H        1.3815509800   -1.1427225571   -1.7969925601
H       -0.0951002984   -3.5954392510    0.8492131106
H       -1.5670741549   -3.4663586294   -0.1316747213
H       -2.3005929540    0.4056107256    1.5417875748
H       -3.3927771867    0.4603535570    0.1321458899
H        1.1690661047   -0.9238778156    0.5949049533
H       -0.8754098698   -1.5374086034    1.7452783250
H        0.0655884675    3.3689613483   -0.4905358975
H        1.7774956156    3.4990512797   -0.0570443810
H       -0.1168723124   -3.2994331262   -1.8974956499
29   
Generated by ForceBalance from scan.xyz: Frame 9 of 24
C        1.1087099489    1.5848671865    0.2563462825
C       -1.3218118498    1.1679225956   -0.2820571990
C        0.4562388619   -1.2991382029   -1.3728897655
C       -0.5674344598   -2.9234606731    0.0774642895
C       -2.3308695621    0.2851234569    0.4473070950
C        0.2992942243   -0.6891021212    0.0287196952
C       -0.8395808456   -1.5252221651    0.6326065285
C        0.8682073528    3.0998112737    0.2473712342
C        0.4578508620    3.6567531802    1.5998795887
N        0.3076233009   -2.7389790879   -1.1093546664
N        0.0405170350    0.7511378214    0.0592396242
O        2.2503766603    1.1680487619    0.4459763260
O       -2.1169197502   -1.0887389729    0.1494165391
F        0.1082973748    4.9648664843    1.4894151970
F        1.4445423368    3.5721504993    2.5122770998
F       -0.6241805331    3.0110871084    2.1214856693
H       -1.4822383927    1.0828539108   -1.3647680786
H       -1.4903542851    2.2013913169    0.0124139632
H       -0.3162658726   -0.8966585171   -2.0456511602
H        1.4392042586   -1.0727202507   -1.7960724007
H       -0.0568774151   -3.5404475846    0.8258780189
H       -1.5224383290   -3.4023839083   -0.1633798533
H       -2.2593166717    0.4587417474    1.5315484179
H       -3.3447668678    0.5243176999    0.1169171337
H        1.2128297200   -0.8671137185    0.5964784241
H       -0.8391965996   -1.4865382575    1.7304273324
H        0.1363624993    3.4339574127   -0.4890897361
H        1.8265522921    3.5571927452   -0.0015509755
H       -0.0603915684   -3.2268625015   -1.9186808171
29   
Generated by ForceBalance from scan.xyz: Frame 10 of 24
C        1.2743264692    1.6428820358    0.3920568251
C       -1.1494467457    1.3040245545   -0.2207330567
C        0.5617438914   -1.1961638195   -1.3464971684
C       -0.5141300901   -2.8132471695    0.0727596308
C       -2.1850617455    0.4385098978    0.4928274826
C        0.4174804673   -0.6033711186    0.0636532726
C       -0.7465346324   -1.4169415387    0.6508971876
C        1.0659909555    3.1618614046    0.3931033943
C        0.5906999382    3.7164451131    1.7301800903
N        0.3775380233   -2.6349519809   -1.1026440458
N        0.1998974849    0.8426204118    0.1125934348
O        2.3943991183    1.1961148601    0.6355701261
O       -2.0094587872   -0.9355152434    0.1719237387
F       -0.0179678187    4.9207233592    1.5620731571
F        1.6005327043    3.8862489211    2.6051690844
F       -0.3265636994    2.9087422075    2.3331224855
H       -1.3118061976    1.2436780561   -1.3046746697
H       -1.2883322551    2.3374233927    0.0904455464
H       -0.1991877104   -0.7647558211   -2.0146470872
H        1.5508497310   -0.9886772062   -1.7653989416
H       -0.0307761088   -3.4603795167    0.8136398270
H       -1.4822400543   -3.2558485474   -0.1850876834
H       -2.1105019233    0.5919779430    1.5798207694
H       -3.1911213260    0.7119949638    0.1649611770
H        1.3235387026   -0.8143263390    0.6319876984
H       -0.7482825411   -1.3964349828    1.7491375864
H        0.3924942904    3.5258419872   -0.3835044834
H        2.0467890442    3.5996874469    0.2030631752
H        0.0080624931   -3.1053410675   -1.9216446158
29   
Generated by ForceBalance from scan.xyz: Frame 11 of 24
C        1.3206143752    1.6269752344    0.4327718252
C       -1.0994935800    1.3272955629   -0.2055910854
C        0.5661919786   -1.1955288971   -1.3453792714
C       -0.5321525781   -2.7997347353    0.0711477841
C       -2.1471570404    0.4782586736    0.5104419434
C        0.4371322701   -0.6053128383    0.0672279531
C       -0.7380553224   -1.4020620287    0.6561724737
C        1.1231658209    3.1478169200    0.4496576622
C        0.5311841948    3.6930564422    1.7504334457
N        0.3614990918   -2.6319256018   -1.1043370947
N        0.2427345800    0.8432974832    0.1231189823
O        2.4333137048    1.1660299464    0.6834676827
O       -1.9949458170   -0.8975485240    0.1845758316
F       -0.3376945248    4.7114211555    1.5014454699
F        1.4803533955    4.1678888588    2.5825814764
F       -0.1715946330    2.7576348632    2.4445288757
H       -1.2656522475    1.2693273235   -1.2889962558
H       -1.2210877387    2.3643385944    0.1019106635
H       -0.1909922403   -0.7507716362   -2.0090616028
H        1.5564734378   -1.0020868424   -1.7682677530
H       -0.0601452100   -3.4596094160    0.8080646986
H       -1.5087709624   -3.2227258826   -0.1877179894
H       -2.0656244486    0.6275029974    1.5974084062
H       -3.1499066823    0.7688208053    0.1871738896
H        1.3418336744   -0.8327733645    0.6313488653
H       -0.7347262275   -1.3858894165    1.7544371142
H        0.5181075538    3.5151290581   -0.3799569072
H        2.1188147489    3.5787848443    0.3454783745
H       -0.0145733229   -3.0957902800   -1.9240808091
29   
Generated by ForceBalance from scan.xyz: Frame 12 of 24
C        1.3497454156    1.5829204396    0.4486113258
C       -1.0697149910    1.3188893905   -0.2048575403
C        0.5536726615   -1.2260293523   -1.3473793911
C       -0.5686023904   -2.8143820266    0.0682777927
C       -2.1297998866    0.4893045185    0.5156378001
C        0.4367926920   -0.6355984424    0.0660158732
C       -0.7497565054   -1.4145895428    0.6567821650
C        1.1682975439    3.1065318163    0.4910609892
C        0.4778718611    3.6317107201    1.7549395889
N        0.3297024069   -2.6593421404   -1.1054818316
N        0.2642946110    0.8152039949    0.1271653183
O        2.4580020132    1.1073141598    0.6909051172
O       -2.0002675066   -0.8892393021    0.1903838879
F       -0.6021545459    4.4052055289    1.4455796613
F        1.3060513501    4.3961679318    2.4985576305
F        0.0194373009    2.6417232504    2.5625364739
H       -1.2361274624    1.2542260990   -1.2877701845
H       -1.1758483494    2.3609152955    0.0911633274
H       -0.1989110460   -0.7707193918   -2.0091535685
H        1.5455024080   -1.0466315441   -1.7728050754
H       -0.1097649943   -3.4851729567    0.8036194848
H       -1.5526776300   -3.2182900722   -0.1930148607
H       -2.0429773823    0.6381630193    1.6023052779
H       -3.1286772123    0.7953294350    0.1947283040
H        1.3390930402   -0.8786279010    0.6274788722
H       -0.7426275228   -1.4003373403    1.7550234529
H        0.6225359727    3.4824770063   -0.3753655347
H        2.1734472999    3.5248376833    0.4672168081
H       -0.0500587313   -3.1195523011   -1.9256110514
29   
Generated by ForceBalance from scan.xyz: Frame 13 of 24
C        1.3688906532    1.6019285515    0.4235295108
C       -1.0518933362    1.3446639935   -0.2401849999
C        0.5568475066   -1.2149885981   -1.3550665602
C       -0.5733399481   -2.7849667017    0.0757981070
C       -2.1184072138    0.5311412468    0.4887371984
C        0.4435427573   -0.6122506980    0.0533219330
C       -0.7472784277   -1.3790908679    0.6517198567
C        1.1998642961    3.1271056413    0.4998706644
C        0.5222362139    3.6219956124    1.7805914651
N        0.3217284980   -2.6448531842   -1.1023246081
N        0.2783140549    0.8399806388    0.1053654114
O        2.4771580830    1.1188865570    0.6496773869
O       -1.9959189946   -0.8523372022    0.1820468736
F       -0.7238449249    4.1237439186    1.5350302227
F        1.2289518487    4.6216900139    2.3564952017
F        0.3714018985    2.6505633639    2.7103786003
H       -1.2135526445    1.2600326576   -1.3223748677
H       -1.1529631904    2.3917291928    0.0365826834
H       -0.1915454208   -0.7597888969   -2.0214890548
H        1.5503767737   -1.0462966597   -1.7808452425
H       -0.1147237956   -3.4503153004    0.8162410019
H       -1.5595440667   -3.1879063905   -0.1786954739
H       -2.0344278241    0.6937523435    1.5739888631
H       -3.1148718152    0.8380011041    0.1612126988
H        1.3446622366   -0.8560982748    0.6162493447
H       -0.7386457569   -1.3550239033    1.7498114404
H        0.6491534276    3.5275390102   -0.3526565917
H        2.2101611821    3.5328180747    0.4836773931
H       -0.0652445925   -3.1070782710   -1.9179061179
29   
Generated by ForceBalance from scan.xyz: Frame 14 of 24
C        1.2967743269    1.5823512674    0.4079577155
C       -1.1268811674    1.3211604277   -0.2481560989
C        0.5564429190   -1.2280915339   -1.2992657822
C       -0.6377477900   -2.8122691393    0.0615446080
C       -2.2226289573    0.4908288552    0.4142745119
C        0.3643238280   -0.6336470757    0.1042406775
C       -0.8511577673   -1.4103462417    0.6343569508
C        1.1427581919    3.1100015400    0.4678170536
C        0.5988726378    3.6158638480    1.8012037666
N        0.3164059616   -2.6607740722   -1.0674655019
N        0.1889218829    0.8183806973    0.1550488134
O        2.4083156955    1.0949814306    0.6047663890
O       -2.0760652537   -0.8886318863    0.1021293883
F       -0.7536340551    3.8033132536    1.7654001429
F        1.1375820682    4.8197284788    2.1141570494
F        0.8534827064    2.7798072789    2.8289143489
H       -1.2360907745    1.2568771805   -1.3386730907
H       -1.2479991727    2.3599529818    0.0498992003
H       -0.1589542349   -0.7726728011   -2.0010558322
H        1.5700478492   -1.0507928915   -1.6700872158
H       -0.2140115563   -3.4781806235    0.8220442426
H       -1.6067557940   -3.2202229230   -0.2455292643
H       -2.1977741063    0.6430133234    1.5041558087
H       -3.2023202671    0.7954790915    0.0378502898
H        1.2359685611   -0.8768101303    0.7123467078
H       -0.9011787471   -1.3930342532    1.7315721909
H        0.5046725806    3.5000358717   -0.3263566271
H        2.1478989042    3.5120127454    0.3495541487
H       -0.0253173940   -3.1198318124   -1.9047657587
29   
Generated by ForceBalance from scan.xyz: Frame 15 of 24
C        1.2271981403    1.4833336621    0.5309791864
C       -1.1715395098    1.2245740626   -0.2172994652
C        0.5850705057   -1.2906265020   -1.2438144251
C       -0.6690537055   -2.9130514122    0.0108674064
C       -2.2901411050    0.3710285112    0.3728506740
C        0.3159688032   -0.7290269225    0.1602976936
C       -0.9183769255   -1.5270044544    0.6092949693
C        1.0691643506    3.0089591130    0.6057497004
C        0.5628966135    3.4912307633    1.9563518429
N        0.3578693715   -2.7300117550   -1.0471955621
N        0.1279683656    0.7206270102    0.2358499131
O        2.3321951875    0.9942313633    0.7574557291
O       -2.1199269837   -0.9987654207    0.0319505854
F       -0.7913912680    3.3636053362    2.0724827731
F        0.8351571640    4.8109380233    2.1205758235
F        1.1141473801    2.8312880834    2.9924780753
H       -1.2289305123    1.1867282973   -1.3130636650
H       -1.3149739516    2.2538976453    0.1025616359
H       -0.1036983928   -0.8322272909   -1.9702764795
H        1.6123959689   -1.0915472518   -1.5617810990
H       -0.2975860092   -3.6039199845    0.7762382105
H       -1.6176977139   -3.3061962940   -0.3708261221
H       -2.3146671783    0.4950830519    1.4662090287
H       -3.2540570451    0.6800218619   -0.0391053495
H        1.1576034906   -0.9818902836    0.8056340776
H       -1.0224363122   -1.5388955643    1.7027447129
H        0.4051601208    3.4110536532   -0.1605989064
H        2.0676357975    3.4224917611    0.4662598074
H        0.0859173735   -3.1860908424   -1.9113842177
29   
Generated by ForceBalance from scan.xyz: Frame 16 of 24
C        1.2324956995    1.4775334165    0.5623799039
C       -1.1541559765    1.2311426838   -0.2227952859
C        0.6089824480   -1.2866579338   -1.2424555832
C       -0.6692695727   -2.9110132658   -0.0164568755
C       -2.2819281245    0.3768156385    0.3487269498
C        0.3223011522   -0.7310852040    0.1605066497
C       -0.9204180829   -1.5277248654    0.5883027559
C        1.0796808121    3.0035498657    0.6205345988
C        0.5901358250    3.5036183207    1.9678611305
N        0.3784012962   -2.7262575987   -1.0535878139
N        0.1385946737    0.7189626691    0.2390183604
O        2.3290335137    0.9845811593    0.8202217941
O       -2.1126141068   -0.9909341249   -0.0004341897
F       -0.6897796636    3.1126427841    2.2303950743
F        0.5943259596    4.8616011859    1.9987970507
F        1.3523177027    3.0720736516    2.9903585415
H       -1.2008070090    1.2043650999   -1.3194088253
H       -1.2975287905    2.2578898042    0.1058260494
H       -0.0702226134   -0.8245215054   -1.9756779797
H        1.6404795510   -1.0874110085   -1.5466416043
H       -0.3169973910   -3.6110383412    0.7495915768
H       -1.6137681301   -3.2936543705   -0.4187824491
H       -2.3176202188    0.4930121760    1.4425338508
H       -3.2401237036    0.6923924009   -0.0715370679
H        1.1541699574   -0.9897100539    0.8160695485
H       -1.0384141873   -1.5465951373    1.6802162404
H        0.4196786262    3.4124353979   -0.1457071565
H        2.0786848757    3.4149280067    0.4727562700
H        0.1241296945   -3.1811772964   -1.9237920055
29   
Generated by ForceBalance from scan.xyz: Frame 17 of 24
C        1.2262037849    1.4502410334    0.5746635891
C       -1.1553369461    1.2209216407   -0.2271953821
C        0.5907576132   -1.3075452855   -1.2518540472
C       -0.6974590008   -2.9253080300   -0.0271305397
C       -2.2887304726    0.3724335290    0.3422019592
C        0.3083571901   -0.7521917091    0.1521601684
C       -0.9396596677   -1.5411922454    0.5789321160
C        1.0791890267    2.9762674734    0.6204143169
C        0.5597063059    3.4977858693    1.9496074874
N        0.3486524099   -2.7457546649   -1.0667758414
N        0.1342342288    0.6987500869    0.2312486133
O        2.3154694265    0.9513698097    0.8529572918
O       -2.1276623396   -0.9955545016   -0.0101376449
F       -0.5955617678    2.8876965577    2.3365991678
F        0.2965008682    4.8275212240    1.8721848017
F        1.4476487487    3.3183012549    2.9482624053
H       -1.2031345835    1.1996300136   -1.3238600241
H       -1.2913822356    2.2477620337    0.1050943247
H       -0.0845139273   -0.8382569929   -1.9841342758
H        1.6238396490   -1.1158429426   -1.5557009823
H       -0.3469901168   -3.6273897941    0.7378903250
H       -1.6447383993   -3.3030880935   -0.4274260950
H       -2.3236762157    0.4863053390    1.4361417737
H       -3.2448384749    0.6947775340   -0.0777056842
H        1.1385469272   -1.0163243390    0.8076267676
H       -1.0583307956   -1.5602651551    1.6707457660
H        0.4552555822    3.3914697755   -0.1723846572
H        2.0846127641    3.3812963265    0.4992754991
H        0.0879476934   -3.1955744722   -1.9377077201
29   
Generated by ForceBalance from scan.xyz: Frame 18 of 24
C        1.2345850966    1.4923950139    0.5457096325
C       -1.1435038393    1.2648536294   -0.2623204633
C        0.5669130352   -1.2785773587   -1.3067748620
C       -0.6944849626   -2.8817240862   -0.0348373571
C       -2.2667702885    0.4245966385    0.3397356716
C        0.3217151098   -0.7107617380    0.0993017098
C       -0.9184717170   -1.4914321340    0.5630109369
C        1.0831634317    3.0178503344    0.5687427176
C        0.5119702119    3.5616607242    1.8727485499
N        0.3204936317   -2.7141630520   -1.1070298172
N        0.1550386267    0.7412335594    0.1667053973
O        2.3154008346    0.9964710415    0.8609104200
O       -2.1174560076   -0.9467518725   -0.0045676389
F       -0.4616510990    2.7655145415    2.3943747338
F       -0.0367079237    4.7899244523    1.6882074323
F        1.4607187115    3.6838102860    2.8252360290
H       -1.2181618873    1.2383964569   -1.3572084359
H       -1.2679313970    2.2950416650    0.0654637670
H       -0.1222441310   -0.8101051734   -2.0263822699
H        1.5936341465   -1.0953899182   -1.6369022616
H       -0.3214064832   -3.5750130188    0.7275420994
H       -1.6525893645   -3.2644690630   -0.4031736485
H       -2.2769175909    0.5478765700    1.4330617254
H       -3.2310046292    0.7463276607   -0.0617528445
H        1.1665066820   -0.9703069272    0.7375586527
H       -1.0120613473   -1.4992199420    1.6573722620
H        0.4950876240    3.4224039336   -0.2560070112
H        2.0918418193    3.4220474800    0.4774891338
H        0.0295126511   -3.1657029544   -1.9673712449
29   
Generated by ForceBalance from scan.xyz: Frame 19 of 24
C        1.2826773850    1.5206674752    0.5787739450
C       -1.0926607725    1.3214496917   -0.2395620792
C        0.5700380000   -1.2333256871   -1.3187270707
C       -0.6884429413   -2.8288816140   -0.0332822382
C       -2.2179163557    0.4938554142    0.3767405853
C        0.3542982787   -0.6704891405    0.0942402535
C       -0.8877251839   -1.4390887339    0.5737254694
C        1.1344401274    3.0465879317    0.6217915212
C        0.4574354793    3.5804839099    1.8855977294
N        0.3072088601   -2.6669283320   -1.1244535520
N        0.2047092966    0.7823835960    0.1725490672
O        2.3586437450    1.0154111171    0.8955371064
O       -2.0889031830   -0.8782420886    0.0264211144
F       -0.3107723010    2.6500542321    2.5117740113
F       -0.3571156118    4.6318668602    1.5997517448
F        1.3593630012    4.0121847444    2.7938283421
H       -1.1811537616    1.2946142899   -1.3332756969
H       -1.2011796290    2.3549132906    0.0846119732
H       -0.1233665789   -0.7516450534   -2.0252475662
H        1.5939480490   -1.0618775198   -1.6637650165
H       -0.3070554199   -3.5280936935    0.7195547230
H       -1.6565861960   -3.2020555622   -0.3846492996
H       -2.2110108551    0.6142802717    1.4702998791
H       -3.1839663079    0.8275252887   -0.0103770869
H        1.2060002622   -0.9426317215    0.7179099985
H       -0.9646835273   -1.4503866311    1.6693252168
H        0.6098693909    3.4528157252   -0.2438694742
H        2.1483588437    3.4456517111    0.6093689906
H       -0.0077392507   -3.1073006047   -1.9821129360
29   
Generated by ForceBalance from scan.xyz: Frame 20 of 24
C        1.3109104544    1.4785735351    0.5870497388
C       -1.0644340585    1.3145657763   -0.2382544776
C        0.5585424076   -1.2624401219   -1.3218376631
C       -0.7240059958   -2.8396932610   -0.0383624538
C       -2.2008664315    0.5060431331    0.3826526830
C        0.3534982266   -0.6975143369    0.0916371366
C       -0.8990687861   -1.4482250595    0.5730846890
C        1.1779441231    3.0063575889    0.6569837285
C        0.4137943103    3.5255624759    1.8799824259
N        0.2788052740   -2.6923224461   -1.1250131725
N        0.2249667002    0.7568551291    0.1737084940
O        2.3835078566    0.9589098358    0.8912427662
O       -2.0939495631   -0.8680118907    0.0319725092
F       -0.1292991876    2.5336207503    2.6299655672
F       -0.6182543910    4.3385876903    1.5131163681
F        1.2089499847    4.2488665449    2.6979413798
H       -1.1548499234    1.2826081263   -1.3316499064
H       -1.1568193455    2.3520973387    0.0774534890
H       -0.1309240255   -0.7725593032   -2.0266824773
H        1.5835588016   -1.1040476190   -1.6697314184
H       -0.3591154775   -3.5494894098    0.7126847672
H       -1.6982601548   -3.1920234670   -0.3945995259
H       -2.1888291682    0.6266252938    1.4762408011
H       -3.1629485881    0.8541883481   -0.0015245642
H        1.2022930651   -0.9834105827    0.7131281435
H       -0.9721259996   -1.4611166579    1.6689134060
H        0.7101584656    3.4211655748   -0.2369410602
H        2.1957292817    3.3888789620    0.7177017991
H       -0.0360959146   -3.1324005705   -1.9828867039
29   
Generated by ForceBalance from scan.xyz: Frame 21 of 24
C        1.3339600181    1.5028390522    0.5698664091
C       -1.0425413022    1.3468260360   -0.2651058023
C        0.5662332915   -1.2390968174   -1.3259689797
C       -0.7252566633   -2.8040945982   -0.0343919911
C       -2.1863625895    0.5519786601    0.3595293680
C        0.3622834379   -0.6675768254    0.0850537884
C       -0.8954161524   -1.4085868129    0.5684184379
C        1.2143300426    3.0313774902    0.6649680569
C        0.4771218056    3.5273674616    1.9119158501
N        0.2731451016   -2.6663353733   -1.1265220414
N        0.2408066347    0.7876437476    0.1642886036
O        2.4061571561    0.9754402933    0.8611914976
O       -2.0868058799   -0.8261162596    0.0220176791
F        0.2294142636    2.5424020458    2.8068630247
F       -0.7361155871    4.0725628346    1.5971664612
F        1.1762410940    4.4901967474    2.5524290556
H       -1.1254374455    1.2957799610   -1.3582907351
H       -1.1301330129    2.3889599408    0.0339876470
H       -0.1163121627   -0.7461513654   -2.0351066364
H        1.5937577993   -1.0906250603   -1.6708258993
H       -0.3581050193   -3.5087942485    0.7204069202
H       -1.7009941478   -3.1582588628   -0.3843962472
H       -2.1774467403    0.6822035423    1.4523409453
H       -3.1452868612    0.9021816380   -0.0305684121
H        1.2084995598   -0.9565960411    0.7086027646
H       -0.9700450163   -1.4145611418    1.6642233579
H        0.7304192665    3.4674416483   -0.2102436678
H        2.2374732877    3.4007666746    0.7164933546
H       -0.0514419735   -3.1027445548   -1.9826077377
29   
Generated by ForceBalance from scan.xyz: Frame 22 of 24
C        1.2708450508    1.5027623957    0.5068808045
C       -1.1225346662    1.3541067972   -0.2812058696
C        0.5125031249   -1.2414781509   -1.2936921831
C       -0.8165307951   -2.8012421754   -0.0331376247
C       -2.2854273868    0.5566909866    0.3024543317
C        0.2674310854   -0.6668854133    0.1099279491
C       -1.0055674248   -1.4028832850    0.5563748721
C        1.1762262611    3.0342586368    0.5888586034
C        0.5852862935    3.5391916677    1.9025230166
N        0.2015293133   -2.6672148707   -1.1072507380
N        0.1477914630    0.7899194733    0.1822523689
O        2.3500088622    0.9663321306    0.7508019845
O       -2.1771371082   -0.8213171958   -0.0311713564
F        0.7349467144    2.6626178043    2.9187556704
F       -0.7565688708    3.7787289655    1.7968565722
F        1.1548178288    4.7075030919    2.2785963838
H       -1.1735998234    1.3154525235   -1.3771996952
H       -1.2184515853    2.3909128579    0.0324730260
H       -0.1437680245   -0.7427416769   -2.0232160557
H        1.5514599408   -1.0995265212   -1.6047123135
H       -0.4599074344   -3.4972320803    0.7348485468
H       -1.7827457765   -3.1648824866   -0.3989641778
H       -2.3143871167    0.6863125382    1.3951366840
H       -3.2299607641    0.9087759825   -0.1196697960
H        1.0937887873   -0.9575216352    0.7590441491
H       -1.1159082166   -1.4040578833    1.6493047046
H        0.5963239944    3.4641350806   -0.2290142798
H        2.2017849611    3.3956443259    0.5280530069
H       -0.1143888054   -3.0937484346   -1.9714436852
29   
Generated by ForceBalance from scan.xyz: Frame 23 of 24
C        1.2743653055    1.5129235836    0.5307749029
C       -1.1080096413    1.3669778000   -0.2983056899
C        0.5465504683   -1.2265087390   -1.2761995759
C       -0.8089150279   -2.7874594323   -0.0456053205
C       -2.2832263015    0.5705716327    0.2612258659
C        0.2718606990   -0.6534605209    0.1225712418
C       -1.0103833853   -1.3896509336    0.5411648011
C        1.1852831467    3.0439128996    0.6074879833
C        0.6535667479    3.5456251371    1.9413486537
N        0.2327028711   -2.6525178051   -1.0967978624
N        0.1516366589    0.8034607899    0.1952128026
O        2.3474819415    0.9724202485    0.7910789848
O       -2.1692231127   -0.8075287799   -0.0704468839
F        1.1162678929    2.8361319527    2.9897685409
F       -0.7103904515    3.4826141637    2.0016550563
F        0.9888180467    4.8433596292    2.1373075324
H       -1.1343510193    1.3257794867   -1.3950829302
H       -1.2109784207    2.4037700863    0.0125280908
H       -0.0944887021   -0.7279121317   -2.0191897067
H        1.5917816460   -1.0838360475   -1.5650719767
H       -0.4696218699   -3.4845458820    0.7291873689
H       -1.7670044541   -3.1501119289   -0.4331515309
H       -2.3334055105    0.7003234148    1.3530091571
H       -3.2188482323    0.9234789802   -0.1796622909
H        1.0843372098   -0.9460939838    0.7881634576
H       -1.1438480531   -1.3918655023    1.6315239923
H        0.5701071264    3.4799216105   -0.1809341943
H        2.2068560537    3.4096983780    0.5050633990
H       -0.0634468512   -3.0793501476   -1.9678177486
29   
Generated by ForceBalance from scan.xyz: Frame 24 of 24
C        1.2414154964    1.4692968665    0.5508807713
C       -1.1319215624    1.3402983361   -0.3027989053
C        0.5189086325   -1.2607219742   -1.2764304929
C       -0.8571628467   -2.8188338710   -0.0656644097
C       -2.3161784761    0.5456414216    0.2403046627
C        0.2328711388   -0.6912699477    0.1216295766
C       -1.0575122381   -1.4220531028    0.5237498189
C        1.1634038897    3.0008641602    0.6058459577
C        0.6578287183    3.5259305873    1.9376781127
N        0.1951963188   -2.6856077562   -1.1063063846
N        0.1206647070    0.7662812161    0.1958256372
O        2.3040106225    0.9222757587    0.8399684466
O       -2.2059995542   -0.8308996387   -0.0985808120
F        1.3535193948    3.0415586917    2.9844263033
F       -0.6523853550    3.2094104028    2.1520462707
F        0.7421917350    4.8794425049    1.9785862200
H       -1.1497107521    1.3108781746   -1.4001434287
H       -1.2327264577    2.3743706103    0.0184038394
H       -0.1116461498   -0.7553610772   -2.0238332031
H        1.5678500501   -1.1227400557   -1.5540523313
H       -0.5287182035   -3.5199338160    0.7101811620
H       -1.8131306700   -3.1757315412   -0.4636261199
H       -2.3757237370    0.6689271581    1.3322718270
H       -3.2456780671    0.9063327247   -0.2072121821
H        1.0366130117   -0.9902187464    0.7949319437
H       -1.2031952801   -1.4274293983    1.6125325812
H        0.5478653356    3.4410373459   -0.1799624295
H        2.1856896351    3.3617754580    0.4881393977
H       -0.0953356552   -3.1067575632   -1.9819667350
