34

C      2.41456    0.72197   -0.66059
C      0.13952   -0.04505   -0.76353
C      2.80835   -0.55765   -0.28282
C      1.06235    0.99763   -0.90598
C      1.79713   -1.54034   -0.15688
C      4.26037   -0.87711   -0.02235
C     -2.13906    5.90878   -2.42871
C     -3.70331    3.19740   -3.24011
C      2.12332   -2.95568    0.25228
C     -0.66819    4.05211   -1.93266
C     -0.61792    2.58363   -1.53720
N      0.50778   -1.28083   -0.39421
N     -2.04805    4.46924   -2.17979
O      2.63062   -2.95125    1.59955
O      0.75480    2.27766   -1.26928
O     -2.43497    3.82084   -3.42239
H      3.14057    1.52320   -0.77433
H     -0.92126    0.10317   -0.94383
H      4.40457   -1.21045    1.00829
H      4.60853   -1.68783   -0.67318
H      4.89296   -0.00466   -0.20637
H     -3.17300    6.16205   -2.67495
H     -1.48420    6.23717   -3.25011
H     -1.86372    6.43692   -1.51067
H     -3.94639    2.73638   -4.20151
H     -4.47765    3.93053   -2.98062
H     -3.66205    2.42949   -2.45815
H      1.20396   -3.54625    0.17783
H      2.87467   -3.38381   -0.42930
H     -0.28465    4.65929   -1.10660
H     -0.02762    4.22458   -2.81116
H     -0.99277    1.95634   -2.35323
H     -1.22933    2.41114   -0.64307
H      2.85787   -3.86479    1.83291
