22   
Generated by ForceBalance from scan.xyz: Frame 1 of 24
C        5.4856972941    0.8544849994    1.0950808735
C        4.4119505512    1.6202575494    0.6268326148
C        5.5197317627   -0.5215315777    0.8456003292
C        3.3722208563    1.0111215131   -0.0807411493
C        4.4853552488   -1.1301754635    0.1289292505
C        3.4029357976   -0.3671410129   -0.3266331962
C        1.4750108139   -1.8953376925   -0.5080305579
C        1.4364249839   -1.9569423092    1.0109756137
C        2.4274133283   -0.8916865711   -2.5319000943
N        2.3444330671   -0.9803062346   -1.0720119578
O        0.7532014159   -2.6133169867   -1.1991476899
H        6.2913900891    1.3277841732    1.6498829469
H        4.3801947294    2.6893756605    0.8197301146
H        6.3536965321   -1.1199151078    1.2029670566
H        2.5261348643    1.5929805970   -0.4370878986
H        4.5095625142   -2.1966900079   -0.0796062340
H        1.6029895778   -0.9851239308    1.4805327865
H        2.2083028448   -2.6402821956    1.3789052908
H        0.4631302070   -2.3546490672    1.3012390779
H        3.2300040137   -1.5289033743   -2.9244426615
H        2.6288391081    0.1433845722   -2.8198673960
H        1.4790822223   -1.2204086247   -2.9558308747
22   
Generated by ForceBalance from scan.xyz: Frame 2 of 24
C        5.2731913046    1.6076131349    0.0759052283
C        4.3648038280    1.3455487509    1.1064064837
C        5.3224483804    0.7615528767   -1.0381620874
C        3.5118903891    0.2406467386    1.0273977964
C        4.4610177053   -0.3345704861   -1.1260521481
C        3.5499152332   -0.5968149595   -0.0948037000
C        1.3193112821   -1.6168667578   -0.0141765090
C        0.6893464952   -0.3056448986   -0.4563671238
C        3.2913423274   -3.0247685140    0.2038397424
N        2.6907634906   -1.7411959679   -0.1829508508
O        0.6409701128   -2.5322525738    0.4472436943
H        5.9389902276    2.4640344246    0.1403787887
H        4.3253594719    1.9952091989    1.9768356337
H        6.0244212240    0.9619524236   -1.8433415595
H        2.8173818463    0.0221086393    1.8344530370
H        4.4774846035   -0.9872079251   -1.9949654970
H        0.4866868492    0.3205447026    0.4178323806
H       -0.2700110720   -0.5422851429   -0.9212969189
H        1.3126213418    0.2620060845   -1.1492661376
H        2.6504730493   -3.8367028142   -0.1398529243
H        3.4015818188   -3.1056259182    1.2924725095
H        4.2760968027   -3.1049176201   -0.2610304514
22   
Generated by ForceBalance from scan.xyz: Frame 3 of 24
C        5.2236728630    1.5289792954    0.1038848430
C        4.2768164940    1.3413561715    1.1154372120
C        5.2403998623    0.6679050951   -0.9999462368
C        3.3538325271    0.2945330495    1.0298152145
C        4.3086202963   -0.3679261740   -1.0961136206
C        3.3611442662   -0.5581580822   -0.0818406786
C        1.0968942890   -1.4228716814    0.1665607627
C        0.4610112076   -0.1599994283   -0.3896446617
C        2.9811586088   -2.9457317750    0.2499865486
N        2.4306358099   -1.6484993607   -0.1782528914
O        0.4646424096   -2.2070734819    0.8674565988
H        5.9440203037    2.3395369204    0.1743405377
H        4.2612314693    2.0031618561    1.9774539400
H        5.9712273412    0.8115231773   -1.7914980412
H        2.6306379660    0.1328925005    1.8250284422
H        4.2984626379   -1.0289481315   -1.9586762900
H        0.1563432015    0.4905100789    0.4347053850
H       -0.4472211408   -0.4569115147   -0.9218270854
H        1.1147076939    0.3946317633   -1.0638897100
H        2.2812923501   -3.7380204373   -0.0171811548
H        3.1458986692   -2.9781140630    1.3339984628
H        3.9319061328   -3.1053160957   -0.2624325482
22   
Generated by ForceBalance from scan.xyz: Frame 4 of 24
C        5.2548239255    1.4948365466    0.1455829852
C        4.2850525360    1.2962213211    1.1325109809
C        5.2876425570    0.6534476831   -0.9732779068
C        3.3563140868    0.2576104863    1.0101174897
C        4.3496689689   -0.3718762316   -1.1085097294
C        3.3810613455   -0.5755928027   -0.1164055836
C        1.1464487358   -1.4331309100    0.2334387817
C        0.4013601854   -0.2802209495   -0.4119251354
C        3.0213016427   -2.9579688503    0.1552328664
N        2.4467369462   -1.6616352855   -0.2586275539
O        0.6486872015   -2.1197681089    1.1166192558
H        5.9794643834    2.2983828886    0.2459430754
H        4.2555602582    1.9427456122    2.0057174900
H        6.0354433618    0.8055405085   -1.7472607808
H        2.6186466088    0.0874513042    1.7899636978
H        4.3510248686   -1.0148472737   -1.9845899606
H       -0.1539059022    0.2723911672    0.3486641312
H       -0.3262776051   -0.7076486479   -1.1109021175
H        1.0567269236    0.3928667781   -0.9662578341
H        2.3100051925   -3.7538824914   -0.0700930233
H        3.2451975320   -2.9825165723    1.2284194543
H        3.9415860448   -3.1227736925   -0.4085873197
22   
Generated by ForceBalance from scan.xyz: Frame 5 of 24
C        5.3057368543    1.4581265327    0.1854233933
C        4.3227783581    1.2433148608    1.1548181516
C        5.3464097901    0.6404320932   -0.9511010989
C        3.3891939017    0.2122803008    1.0006291238
C        4.4041127149   -0.3749704089   -1.1199030637
C        3.4231641176   -0.5980021840   -0.1426058989
C        1.2154752557   -1.4671714218    0.2706664736
C        0.3496159301   -0.4537937837   -0.4460809760
C        3.0861624178   -2.9803189531    0.0378258736
N        2.4870213973   -1.6778825169   -0.3344516488
O        0.8677557267   -2.0352598543    1.2945975362
H        6.0333152341    2.2553575176    0.3115636481
H        4.2854520170    1.8709979530    2.0414331591
H        6.1033450789    0.8049631975   -1.7136569618
H        2.6458629492    0.0308282962    1.7716804102
H        4.4107037202   -0.9963334131   -2.0113665285
H       -0.3768580414   -0.0237524589    0.2449222401
H       -0.1912927705   -0.9729079327   -1.2459487705
H        0.9497105910    0.3306380659   -0.9124050572
H        2.3693332315   -3.7770027743   -0.1709481057
H        3.3607701275   -3.0217869721    1.0983012648
H        3.9783953747   -3.1346526684   -0.5720888996
22   
Generated by ForceBalance from scan.xyz: Frame 6 of 24
C        5.3826142178    1.4429668129    0.2040575305
C        4.3797277942    1.2681458724    1.1597440433
C        5.4096846112    0.6146293698   -0.9256412027
C        3.4133809789    0.2668423442    1.0033459503
C        4.4361308232   -0.3687279618   -1.0988023319
C        3.4353665952   -0.5563845614   -0.1314976534
C        1.2253671243   -1.3917090988    0.3412853347
C        0.2404713641   -0.5525162140   -0.4364742068
C        3.0470621325   -2.9335264240   -0.0351563555
N        2.4685984810   -1.6040585947   -0.3529825065
O        1.0177211229   -1.8016297805    1.4697887682
H        6.1342991182    2.2169170261    0.3336651912
H        4.3503539462    1.9039382264    2.0409600008
H        6.1800245990    0.7477158983   -1.6809842191
H        2.6595666226    0.1201825262    1.7700004055
H        4.4321640225   -0.9929619682   -1.9882426208
H       -0.5684430235   -0.2107220491    0.2105316513
H       -0.1723192403   -1.1570065366   -1.2520549545
H        0.7515551727    0.2972223217   -0.8983688119
H        2.3090777463   -3.7075306556   -0.2604680633
H        3.3434083223   -3.0188319101    1.0167758328
H        3.9211627760   -3.0898168453   -0.6698824920
22   
Generated by ForceBalance from scan.xyz: Frame 7 of 24
C        5.4934192301    1.5833744417    0.2962527530
C        4.4824728323    1.4903305833    1.2609383335
C        5.5733368583    0.6010709131   -0.6910025017
C        3.5710077151    0.4359833581    1.2476972190
C        4.6544311315   -0.4540548108   -0.7278474081
C        3.6384740943   -0.5469953104    0.2396743759
C        1.3268768781   -1.2522985823    0.4386511034
C        0.4023298811   -1.3143842897   -0.7647383106
C        2.9165359369   -2.6771955352   -0.7629045853
N        2.6959415934   -1.6223173285    0.2265299790
O        0.9188129462   -0.9497722666    1.5443302756
H        6.2075022682    2.4018407281    0.3202816222
H        4.4107428317    2.2383897376    2.0465268053
H        6.3507796291    0.6505848938   -1.4494327155
H        2.8107910738    0.3588193447    2.0158026246
H        4.7400262204   -1.1889100517   -1.5195036139
H       -0.5434150152   -0.8406592501   -0.5007468598
H        0.2035473404   -2.3500199062   -1.0565658792
H        0.8500950105   -0.8089255797   -1.6265655562
H        2.2087999801   -3.4888314325   -0.5843281974
H        3.9201629384   -3.0841846769   -0.6195121548
H        2.8193309111   -2.3476498653   -1.8078678618
22   
Generated by ForceBalance from scan.xyz: Frame 8 of 24
C        5.5662932002    1.5740820671    0.3442165043
C        4.5412625025    1.5133832374    1.2951431282
C        5.6055456292    0.6130806645   -0.6667598449
C        3.5739751069    0.5097416676    1.2461360516
C        4.6330824274   -0.3900459737   -0.7379855292
C        3.6006976987   -0.4492821582    0.2148336592
C        1.2494479111   -1.0980537158    0.3490193148
C        0.2553624630   -1.4637179968   -0.7430622099
C        2.8507320361   -2.5716466952   -0.7880436361
N        2.6026470956   -1.4752471708    0.1493826083
O        0.8717270995   -0.5774697354    1.3873416528
H        6.3231743965    2.3519075652    0.3957225241
H        4.4999285188    2.2453914372    2.0978556302
H        6.3927486094    0.6394563544   -1.4161367875
H        2.7968980185    0.4581148208    1.9974469720
H        4.6880954884   -1.1077062800   -1.5478859958
H       -0.6526038151   -0.8852941288   -0.5709524761
H       -0.0049170756   -2.5259541186   -0.6931678040
H        0.6451722862   -1.2607568416   -1.7446631250
H        2.1278222410   -3.3687926519   -0.6121682734
H        3.8430667285   -2.9816029482   -0.5881801773
H        2.7998897313   -2.2797166991   -1.8463414851
22   
Generated by ForceBalance from scan.xyz: Frame 9 of 24
C        5.6430225528    1.5386106925    0.4070921566
C        4.6241851205    1.4669813678    1.3626140318
C        5.6366931673    0.6349467397   -0.6573392614
C        3.6144177925    0.5079358723    1.2665501233
C        4.6243150864   -0.3221767003   -0.7726826597
C        3.5976461625   -0.3921236919    0.1852123680
C        1.2214627294   -0.9943845918    0.2364455124
C        0.1959383784   -1.6107376075   -0.7050882885
C        2.8507249346   -2.5258568083   -0.7998005573
N        2.5641298893   -1.3783430191    0.0639918717
O        0.8595435928   -0.2682193527    1.1534781061
H        6.4308689858    2.2819045391    0.4939475598
H        4.6181938050    2.1554630343    2.2038879581
H        6.4183498434    0.6729408281   -1.4119119707
H        2.8357216871    0.4524756990    2.0144729563
H        4.6403197801   -0.9967137961   -1.6211432859
H       -0.7182595199   -1.0235074670   -0.6169249238
H       -0.0333644246   -2.6397619088   -0.4083914766
H        0.5286109023   -1.6267594572   -1.7465484874
H        2.1343995301   -3.3227978783   -0.6005694068
H        3.8436785630   -2.9068482671   -0.5530712360
H        2.8225055974   -2.2931664946   -1.8728583911
22   
Generated by ForceBalance from scan.xyz: Frame 10 of 24
C        5.6802277177    1.5094511665    0.4728689900
C        4.6688834634    1.4093714607    1.4338408062
C        5.6407861080    0.6794512081   -0.6501785917
C        3.6288550375    0.4900607283    1.2827726475
C        4.5986442021   -0.2370101602   -0.8154767750
C        3.5825624484   -0.3375565737    0.1487269845
C        1.1942910780   -0.8839038803    0.0984341241
C        0.1524889567   -1.7020705203   -0.6523006867
C        2.8488600249   -2.5009163946   -0.7843632683
N        2.5264457770   -1.2917140613   -0.0221971495
O        0.8503289332    0.0392411522    0.8281786264
H        6.4900360916    2.2229296992    0.5992975140
H        4.6907185976    2.0444234537    2.3158193925
H        6.4172576908    0.7459537760   -1.4080425120
H        2.8500707130    0.4142020570    2.0293099152
H        4.5790688336   -0.8588026604   -1.7045167309
H       -0.7836928539   -1.1452442919   -0.6151949595
H       -0.0052607708   -2.6708171109   -0.1659000693
H        0.4275863351   -1.8905902604   -1.6937738187
H        2.1538236334   -3.3003899946   -0.5268674652
H        3.8508919281   -2.8310313373   -0.5053437040
H        2.8206669190   -2.3536842029   -1.8721440128
22   
Generated by ForceBalance from scan.xyz: Frame 11 of 24
C        5.7073253267    1.4570744177    0.5398685344
C        4.6675200971    1.3455241389    1.4693649874
C        5.6760207288    0.6749308617   -0.6172933421
C        3.6078571407    0.4626184081    1.2540541746
C        4.6146835146   -0.2056504803   -0.8451136557
C        3.5740564996   -0.3193059998    0.0891716480
C        1.1838681274   -0.8439712102   -0.0212272368
C        0.1268080127   -1.7903659411   -0.5736464580
C        2.8534079255   -2.4998962472   -0.8244613168
N        2.5099550341   -1.2495244830   -0.1420938513
O        0.8588193665    0.2019211212    0.5321772748
H        6.5308278329    2.1439109152    0.7160205879
H        4.6816242252    1.9459126995    2.3753677332
H        6.4734169916    0.7521180530   -1.3519791723
H        2.8055700707    0.3823197778    1.9758558043
H        4.5970376472   -0.7927858664   -1.7582648313
H       -0.8311352918   -1.2740080158   -0.5172464558
H        0.0654085262   -2.7053170276    0.0254026498
H        0.3227184823   -2.0816635336   -1.6097824483
H        2.1701718477   -3.2951270489   -0.5254941768
H        3.8594885990   -2.7972105399   -0.5249056526
H        2.8271339805   -2.4128658187   -1.9185764687
22   
Generated by ForceBalance from scan.xyz: Frame 12 of 24
C        5.9695198352    1.2841589589    0.5671692363
C        4.8964642927    1.1895326338    1.4607062547
C        5.9458672743    0.5339427522   -0.6108890039
C        3.8120028956    0.3542857584    1.1892717707
C        4.8595581975   -0.2991371646   -0.8938447613
C        3.7880571495   -0.3988201146    0.0056457365
C        1.3903783139   -0.8984874428   -0.0925712927
C        0.3149393688   -1.9189387645   -0.4395680666
C        3.0434301156   -2.5793819241   -0.8969567031
N        2.7081733240   -1.2928217399   -0.2802248019
O        1.0860336084    0.2170001945    0.3207975275
H        6.8114183014    1.9351850963    0.7868169668
H        4.9033055036    1.7674653990    2.3812662734
H        6.7679322395    0.6001974324   -1.3189301424
H        2.9832218541    0.2917640832    1.8830864671
H        4.8445771438   -0.8618088779   -1.8227598604
H       -0.6496956118   -1.4274385266   -0.3163511177
H        0.3568343912   -2.7865542063    0.2276614653
H        0.4043353614   -2.2836191149   -1.4674026880
H        2.3657160157   -3.3604028046   -0.5515335588
H        4.0540014962   -2.8615377564   -0.5986106370
H        3.0009004405   -2.5430780747   -1.9931036830
22   
Generated by ForceBalance from scan.xyz: Frame 13 of 24
C        5.6976590727    1.3739854582    0.7250036903
C        4.3878999751    1.8658016465    0.7248011848
C        5.9332725178    0.0614925635    0.3080362918
C        3.3238041666    1.0625420973    0.3107185630
C        4.8734801829   -0.7532001459   -0.1003337214
C        3.5609858859   -0.2572336012   -0.1032179212
C        1.3334468116   -1.2275596581    0.2097785424
C        0.3853558038   -2.3538271019   -0.1785739061
C        2.7835726379   -2.0279330654   -1.6427651882
N        2.4883255910   -1.0918198520   -0.5548409521
O        1.0561792095   -0.4669056891    1.1320547086
H        6.5223101735    2.0052978156    1.0449429032
H        4.1899962757    2.8860134944    1.0434208685
H        6.9441918323   -0.3379223143    0.3062296604
H        2.3125431836    1.4477661625    0.3147615864
H        5.0733621577   -1.7764079188   -0.4038348287
H       -0.3903859011   -2.4018195187    0.5851965768
H        0.8897604303   -3.3222640286   -0.2468407713
H       -0.0893455409   -2.1551590962   -1.1454707267
H        3.1872335526   -2.9851298864   -1.2875019870
H        3.5154976987   -1.5698289128   -2.3096087860
H        1.8840971158   -2.2284448613   -2.2253420214
22   
Generated by ForceBalance from scan.xyz: Frame 14 of 24
C        5.7206523213    1.3233237191    0.7744938473
C        4.4260287655    1.8526805335    0.7678331123
C        5.9270749978    0.0227789796    0.3080614066
C        3.3469068861    1.1004110141    0.2995456416
C        4.8525495181   -0.7425186129   -0.1536132885
C        3.5526852367   -0.2110938171   -0.1594875606
C        1.3008058196   -1.1348968548    0.1205720005
C        0.4683747638   -2.3896674610   -0.1051948736
C        2.7780399071   -2.0046762760   -1.6666425117
N        2.4597723484   -0.9986065141   -0.6499176016
O        0.9146067246   -0.2643002150    0.8926717929
H        6.5565380774    1.9168198180    1.1349653303
H        4.2508674161    2.8655454413    1.1214306443
H        6.9257126910   -0.4066200460    0.3079807494
H        2.3484217281    1.5157836477    0.2946425997
H        5.0353174270   -1.7564411498   -0.4940988780
H       -0.2725472639   -2.4336623848    0.6928733858
H        1.0671919174   -3.3047588852   -0.1024878686
H       -0.0613856433   -2.3378545397   -1.0625654075
H        3.1926593155   -2.9323240333   -1.2503451201
H        3.5061313240   -1.5802521968   -2.3599170507
H        1.8835085863   -2.2532978020   -2.2380023641
22   
Generated by ForceBalance from scan.xyz: Frame 15 of 24
C        5.7050377421    1.2648408022    0.8528712106
C        4.4126450219    1.7990737762    0.8762798421
C        5.9038040265    0.0013391459    0.2928108906
C        3.3319877248    1.0917844765    0.3466376373
C        4.8285418847   -0.7234679392   -0.2294955134
C        3.5286798312   -0.1886184634   -0.2025738240
C        1.2376877566   -1.0381087887   -0.0033264913
C        0.5333786760   -2.3878479229   -0.0060537161
C        2.7658283752   -2.0173936588   -1.6707052840
N        2.4302833251   -0.9345756420   -0.7433352124
O        0.7241507310   -0.0747134476    0.5509155224
H        6.5425839815    1.8257399154    1.2586473569
H        4.2398234815    2.7856561612    1.2988471450
H        6.8995869262   -0.4338831339    0.2645128224
H        2.3376252579    1.5159290338    0.3596345948
H        5.0160536697   -1.7088285868   -0.6406808382
H       -0.1991316229   -2.3723093970    0.8011325699
H        1.2203747997   -3.2273153024    0.1314687815
H       -0.0041282685   -2.5428072048   -0.9476216860
H        3.1908827466   -2.9051936471   -1.1833125021
H        3.4884454720   -1.6408956006   -2.3973706218
H        1.8742837876   -2.3190371220   -2.2203872895
22   
Generated by ForceBalance from scan.xyz: Frame 16 of 24
C        5.6991669043    1.1924250941    0.8842961539
C        4.4050953965    1.7236570789    0.9254353106
C        5.9055934491   -0.0286727996    0.2413129460
C        3.3343701590    1.0552927058    0.3319208333
C        4.8386377722   -0.7180858176   -0.3446451112
C        3.5373389132   -0.1871435466   -0.2999222410
C        1.2222381325   -0.9638423475   -0.1763777951
C        0.6501974991   -2.3501543595    0.0798960378
C        2.7799436478   -2.0306875111   -1.7468781859
N        2.4400354222   -0.8867662887   -0.8995190046
O        0.6047364375    0.0366265574    0.1548945212
H        6.5305173701    1.7244333074    1.3385675252
H        4.2247606064    2.6797180691    1.4105287390
H        6.9021328497   -0.4608119249    0.1953560455
H        2.3409456160    1.4839210645    0.3505223415
H        5.0375218355   -1.6711186612   -0.8200506741
H       -0.0923951033   -2.2592694268    0.8730468775
H        1.4185261328   -3.0736168746    0.3663748757
H        0.1445577947   -2.7315244815   -0.8133380374
H        3.2015960302   -2.8860984326   -1.2007017981
H        3.5050683397   -1.7051170875   -2.4959344472
H        1.8888380019   -2.3642695527   -2.2794038391
22   
Generated by ForceBalance from scan.xyz: Frame 17 of 24
C        5.6340237815    1.1304422428    0.9363730975
C        4.3409060306    1.6678676305    0.9522431316
C        5.8588512923   -0.0622404758    0.2487148569
C        3.2921153121    1.0319734682    0.2902718940
C        4.8116664513   -0.7213200098   -0.4057007597
C        3.5127541594   -0.1833852998   -0.3886836128
C        1.2024089972   -0.9142350359   -0.3227655103
C        0.8054083306   -2.2806543796    0.2095539809
C        2.7636530662   -2.0165699736   -1.8533537260
N        2.4297172591   -0.8339010407   -1.0593843394
O        0.4868344790    0.0594627622   -0.1779414919
H        6.4497512171    1.6371879166    1.4444685960
H        4.1468300484    2.6032153894    1.4712571180
H        6.8549642450   -0.4970037687    0.2205690277
H        2.3016676596    1.4710644923    0.2849697257
H        5.0237255244   -1.6532708598   -0.9160367566
H       -0.0222919780   -2.1523268933    0.9073825960
H        1.6484136711   -2.7686411045    0.7091201039
H        0.4762407471   -2.9376224074   -0.6013134085
H        3.1455633933   -2.8648499493   -1.2664935966
H        3.5186539432   -1.7378791076   -2.5921266812
H        1.8773622748   -2.3406353013   -2.4017278493
22   
Generated by ForceBalance from scan.xyz: Frame 18 of 24
C        5.5608229441    0.9352861680    0.8661159235
C        4.2648482830    1.4533263840    0.8239502641
C        5.8066270788   -0.3472195150    0.3583420535
C        3.2173285047    0.7081911443    0.2686166588
C        4.7630487590   -1.1035388577   -0.1743507826
C        3.4616577120   -0.5786989341   -0.2316161691
C        1.1036752372   -1.0570563998   -0.3609425881
C        0.7076655075   -1.7621723590    0.9138654587
C        2.5129776667   -1.3830488843   -2.2962358799
N        2.4269072816   -1.3979314742   -0.8145178640
O        0.4013353934   -0.2347489869   -0.9223884152
H        6.3715259446    1.5204413843    1.2917803354
H        4.0630619378    2.4479586730    1.2133384072
H        6.8096067381   -0.7648429818    0.3943911518
H        2.2217807713    1.1361851891    0.2120691009
H        4.9406021049   -2.1112178998   -0.5401919674
H       -0.1772632775   -1.2978462702    1.3509970727
H        1.5398595290   -1.7529366434    1.6237985955
H        0.4960380577   -2.8129003839    0.6855296050
H        3.4965704556   -1.7555321666   -2.5880706770
H        2.3676021348   -0.3794317044   -2.7124928371
H        1.7510242347   -2.0513826710   -2.7051881042
22   
Generated by ForceBalance from scan.xyz: Frame 19 of 24
C        5.5014246515    0.9032032089    0.9099982597
C        4.2058471907    1.4202636696    0.8322464577
C        5.7680746822   -0.3731900352    0.3983827022
C        3.1802413834    0.6760274276    0.2383794163
C        4.7439321340   -1.1281481705   -0.1746674738
C        3.4449952353   -0.6060334292   -0.2627087998
C        1.1025721201   -1.1470600516   -0.4141378097
C        0.8264685433   -1.7009268471    0.9669862251
C        2.5144915574   -1.3326568033   -2.3674068949
N        2.4198530030   -1.4012987121   -0.8907479963
O        0.2783316130   -0.5129731663   -1.0549296057
H        6.2969008855    1.4867561197    1.3655443548
H        3.9902184325    2.4110968805    1.2236766367
H        6.7714654009   -0.7864878346    0.4609483943
H        2.1820965339    1.0960355882    0.1532658679
H        4.9357838319   -2.1303868127   -0.5482015852
H        0.0235731579   -1.1376675091    1.4448432692
H        1.7237899340   -1.6972699959    1.5895790050
H        0.5062708539   -2.7437067181    0.8577022738
H        3.5030161331   -1.6874126613   -2.6653665031
H        2.3662636186   -0.3141491434   -2.7447196476
H        1.7552299483   -1.9835847889   -2.8053781858
22   
Generated by ForceBalance from scan.xyz: Frame 20 of 24
C        5.4796286499    0.8642401234    0.9677697616
C        4.1959411560    1.4120891074    0.8898882001
C        5.7223786396   -0.4102382938    0.4410012419
C        3.1592674583    0.6969184359    0.2816289466
C        4.6852081876   -1.1352572455   -0.1490214133
C        3.3994636186   -0.5841924529   -0.2332368054
C        1.0587075749   -1.1837806597   -0.3446283522
C        0.9020700822   -1.5958605688    1.1067984239
C        2.4079382918   -1.2265065324   -2.3505865436
N        2.3538139465   -1.3344170153   -0.8783375257
O        0.1218629542   -0.7553607068   -1.0064606703
H        6.2849852376    1.4245287727    1.4350377411
H        4.0006156757    2.4023750064    1.2930411684
H        6.7166881518   -0.8448716313    0.5029107863
H        2.1675709692    1.1337748408    0.1982435263
H        4.8574091621   -2.1350142010   -0.5385785650
H        0.2556613846   -0.8845745540    1.6248985957
H        1.8557463998   -1.6899841546    1.6278332156
H        0.4027269067   -2.5711467817    1.1206607870
H        3.4028964374   -1.5300648967   -2.6820330915
H        2.2085196539   -0.2042535853   -2.6936067692
H        1.6613106830   -1.8917687747   -2.7866363663
22   
Generated by ForceBalance from scan.xyz: Frame 21 of 24
C        5.4756223620    0.8287299601    1.0189894437
C        4.2068126212    1.4102800258    0.9358673419
C        5.6924959138   -0.4443638390    0.4783048972
C        3.1594076902    0.7274832867    0.3099130286
C        4.6438168358   -1.1356438252   -0.1322950808
C        3.3728707598   -0.5525355713   -0.2181398142
C        1.0411561338   -1.2547421100   -0.3022829472
C        0.9773860190   -1.5206035559    1.1923411348
C        2.3387491981   -1.1460926949   -2.3471214556
N        2.3124547793   -1.2615088339   -0.8790232173
O        0.0271065097   -1.0603527439   -0.9654146012
H        6.2901325794    1.3628051653    1.5008716568
H        4.0325203179    2.4002688607    1.3491950398
H        6.6754993425   -0.9034010470    0.5437014693
H        2.1776629620    1.1861776304    0.2245091262
H        4.7954134201   -2.1331326698   -0.5361438904
H        0.5542124432   -0.6503755090    1.7014387623
H        1.9462202783   -1.7597632648    1.6324540738
H        0.2881059620   -2.3553540156    1.3482836329
H        3.3438379876   -1.3905019243   -2.6964268858
H        2.0780723798   -0.1335118439   -2.6788087895
H        1.6200158055   -1.8457234646   -2.7747298044
22   
Generated by ForceBalance from scan.xyz: Frame 22 of 24
C        5.5052589516    0.8146868514    1.0524070507
C        4.2532482204    1.4172212247    0.8928095271
C        5.7333835262   -0.4634634773    0.5294397575
C        3.2334885119    0.7480496820    0.2097602699
C        4.7111519896   -1.1395387161   -0.1410839699
C        3.4566677634   -0.5373907213   -0.3002046310
C        1.1683504987   -1.4107324140   -0.4537377068
C        1.1061302321   -1.5483525024    1.0591043254
C        2.4901374931   -1.1348979714   -2.4794176953
N        2.4237186674   -1.2290043113   -1.0151349820
O        0.1558187395   -1.4806756166   -1.1472368655
H        6.2986757293    1.3374853053    1.5797280153
H        4.0718291889    2.4116483359    1.2921462243
H        6.7035300334   -0.9375042292    0.6533167277
H        2.2639020698    1.2184061290    0.0677372860
H        4.8706731000   -2.1395950640   -0.5355992720
H        0.7604569194   -0.6088095500    1.5008659470
H        2.0648462939   -1.8092052879    1.5103107193
H        0.3621045073   -2.3138401858    1.2895331112
H        3.5180054526   -1.3229787433   -2.7965196940
H        2.1822454866   -0.1430554771   -2.8335570833
H        1.8241036525   -1.8794258270   -2.9154932148
22   
Generated by ForceBalance from scan.xyz: Frame 23 of 24
C        5.5038185371    0.8094457659    1.0942833297
C        4.2783690887    1.4460730871    0.8716206979
C        5.7171169745   -0.4821431344    0.5991742105
C        3.2696806680    0.7953005896    0.1550726687
C        4.7060554012   -1.1372034156   -0.1087668871
C        3.4770566727   -0.5025933912   -0.3279387076
C        1.2631448164   -1.5768051431   -0.4997959446
C        1.2175463169   -1.6249954563    1.0195050844
C        2.5404504251   -1.0908985601   -2.5342574085
N        2.4536485905   -1.1725542913   -1.0738726976
O        0.2922824967   -1.8991323732   -1.1837847608
H        6.2885348988    1.3166625131    1.6491894922
H        4.1092325200    2.4507237181    1.2502093333
H        6.6669920919   -0.9815377195    0.7711640487
H        2.3183164888    1.2868584972   -0.0316436204
H        4.8543899533   -2.1454538683   -0.4866719687
H        0.9539270945   -0.6406953641    1.4191414228
H        2.1713423396   -1.9180124454    1.4636518655
H        0.4359441302   -2.3300393680    1.3053187257
H        3.5633066552   -1.3162471621   -2.8465208667
H        2.2743100871   -0.0888909090   -2.8939576742
H        1.8490791135   -1.8135002313   -2.9668452653
22   
Generated by ForceBalance from scan.xyz: Frame 24 of 24
C        5.5028149053    0.8137392382    1.1041831518
C        4.3125692214    1.4962819512    0.8310393309
C        5.6733188780   -0.4985654229    0.6490630389
C        3.2955573016    0.8688976959    0.1054999282
C        4.6550687898   -1.1282897254   -0.0720116603
C        3.4605180817   -0.4480830960   -0.3395246623
C        1.3470931487   -1.7192047900   -0.5061440049
C        1.3033162776   -1.7045332888    1.0139976959
C        2.5527083129   -1.0612568375   -2.5520657915
N        2.4258591990   -1.0886294439   -1.0948578889
O        0.4676905009   -2.2642992912   -1.1727104038
H        6.2936427639    1.3017534433    1.6676169224
H        4.1768561864    2.5165385993    1.1801946124
H        6.5962034337   -1.0326422421    0.8595189385
H        2.3682404916    1.3905757075   -0.1169920493
H        4.7731244478   -2.1502560173   -0.4232324572
H        1.1404115776   -0.6901330480    1.3901991610
H        2.2376639025   -2.0654070892    1.4523029768
H        0.4762286924   -2.3403046927    1.3296691334
H        3.4764766524   -1.5595352877   -2.8668057452
H        2.5743330569   -0.0268798473   -2.9129012847
H        1.6945449989   -1.5804312439   -2.9777479361
