25   

C        0.0068803272   -0.0810819475    1.3459008745
C        1.6315915788   -0.6648274863    2.9781618795
C       -0.8535719159   -1.0031496422    1.9414223864
C        1.2903646388    0.0991544980    1.8649608425
C        0.7114608968   -1.5718246393    3.5098646498
C        2.3068155728    1.0640187604    1.3402247223
C        2.8336460570    4.1089757330    0.8928314236
C        2.3050044634   -2.4958916720    5.2195319529
C        2.6594767040    2.9351756779   -0.0658274090
N       -0.5059795925   -1.7384553381    3.0068044442
N        0.9822360671   -2.3719279699    4.5945044295
O        3.4815459151    1.0179538580    1.6971550384
O        1.7633965729    1.9602501259    0.4871598488
H       -0.3312174207    0.4860001506    0.4874229123
H        2.6076864120   -0.5615602320    3.4313667363
H       -1.8459645006   -1.1317049147    1.5250635782
H        1.8632493603    4.5666935634    1.1069456159
H        3.2856279016    3.7729916365    1.8309995295
H        3.4869404895    4.8621233337    0.4427673174
H        3.0576326121   -2.7700249799    4.4726690881
H        2.2829548436   -3.2792420418    5.9837906389
H        2.5914537759   -1.5549724895    5.7006517465
H        3.6356504877    2.4913429486   -0.2915583714
H        2.2423413355    3.3015892035   -1.0090685834
H        0.2079576442   -2.9812744301    4.8332253609
25   

C       -0.0024658039   -0.1855624591    1.2506520191
C        1.6132868913   -0.6612449422    2.9260970329
C       -0.8582974562   -1.0839518586    1.8878657832
C        1.2749854004    0.0322566773    1.7672048216
C        0.6986060020   -1.5484912472    3.4987577210
C        2.2751099011    0.9929847864    1.2060392413
C        2.9399153677    4.0421274254    1.0446187468
C        2.2868280381   -2.3591706707    5.2692588378
C        2.5523383814    3.0061494412   -0.0058420042
N       -0.5119844707   -1.7569809335    2.9943521926
N        0.9676014923   -2.2826221129    4.6294309149
O        3.4802312057    0.8495040156    1.3947143525
O        1.6782889778    2.0174135929    0.5575825281
H       -0.3372309887    0.3365515248    0.3628706850
H        2.5846056832   -0.5170503712    3.3784086091
H       -1.8460848272   -1.2447339999    1.4717606336
H        2.0430504438    4.5190938967    1.4509954483
H        3.4953666982    3.5702025895    1.8607345111
H        3.5734863338    4.8104844350    0.5920579045
H        3.0481918911   -2.6626604152    4.5428809519
H        2.2675927609   -3.1024397489    6.0726290243
H        2.5590271292   -1.3915319849    5.7033339567
H        3.4543457685    2.5440476446   -0.4226654860
H        2.0328631642    3.5071432305   -0.8287204060
H        0.1986078685   -2.8882616201    4.8934232194
25   

C       -0.0021574413   -0.2886243725    1.1555713508
C        1.6014939278   -0.6426243889    2.8713682775
C       -0.8464501569   -1.1728792956    1.8272961591
C        1.2641710229   -0.0203196030    1.6729261234
C        0.6994938242   -1.5202530826    3.4779181772
C        2.2388730825    0.9462395074    1.0763455470
C        3.0669147196    3.9589602391    1.1817642702
C        2.2831566747   -2.2060961547    5.3040832729
C        2.4691805664    3.0817326919    0.0863134438
N       -0.4994290842   -1.7818365984    2.9702526024
N        0.9696524455   -2.1883038255    4.6485063754
O        3.4468735870    0.7278404035    1.0820502936
O        1.6224066748    2.0714178149    0.6528364361
H       -0.3360476584    0.1858790042    0.2412526930
H        2.5641438762   -0.4500675000    3.3239280901
H       -1.8257676868   -1.3751241913    1.4092655860
H        2.2688944724    4.4218880647    1.7698587694
H        3.7012958715    3.3634983751    1.8452630210
H        3.6775526943    4.7480525376    0.7333693226
H        3.0586913712   -2.5265615876    4.6003435016
H        2.2710102994   -2.9113185641    6.1411923850
H        2.5298111135   -1.2135217482    5.6949408425
H        3.2718565348    2.6343153387   -0.5107224391
H        1.8715169279    3.7052996050   -0.5859656393
H        0.2112010039   -2.7980134478    4.9329656698
25   

C       -0.0108765916   -0.4012211209    1.0665662939
C        1.5751150576   -0.6201675352    2.8195098734
C       -0.8342052064   -1.2852233724    1.7643779517
C        1.2360438471   -0.0650175702    1.5894988981
C        0.6954027309   -1.5024030704    3.4516321718
C        2.1794534535    0.9113924770    0.9554244961
C        3.2269091307    3.8390057892    1.2785002133
C        2.2733127579   -2.0506826810    5.3287292983
C        2.4096026216    3.1389521271    0.1974171016
N       -0.4847646789   -1.8299565400    2.9385772144
N        0.9702888705   -2.1075721207    4.6548508669
O        3.3555588136    0.6294488526    0.7488126558
O        1.5883533516    2.1112718599    0.7700226404
H       -0.3455952201    0.0202953181    0.1270936749
H        2.5231796442   -0.3721135163    3.2752119792
H       -1.7984977323   -1.5414219636    1.3410377255
H        2.5618647763    4.2652767631    2.0354718974
H        3.9103513741    3.1325184978    1.7591344634
H        3.8172717182    4.6453120506    0.8335865858
H        3.0707692961   -2.3701772864    4.6494773662
H        2.2739132660   -2.7219655755    6.1933861752
H        2.4775439730   -1.0348581233    5.6825473259
H        3.0789783762    2.7286253407   -0.5671040616
H        1.7631467494    3.8724660847   -0.2945862440
H        0.2299922973   -2.7324865276    4.9539139231
25   

C       -0.0356938324   -0.5032010542    0.9955174297
C        1.5073228748   -0.5633423129    2.7973350023
C       -0.8241106517   -1.4123554834    1.7013168961
C        1.1693194218   -0.0679607045    1.5422480382
C        0.6649951764   -1.4768931616    3.4361058370
C        2.0741851249    0.9292091628    0.8797495816
C        3.3788902725    3.7274220922    1.3408463629
C        2.2236984384   -1.8757483192    5.3663334071
C        2.3405056908    3.2165352872    0.3469476391
N       -0.4778139361   -1.8933545090    2.9038162717
N        0.9426224146   -2.0258333199    4.6653640958
O        3.1685431090    0.6076392758    0.4290688193
O        1.5506166020    2.1719013569    0.9327287296
H       -0.3643226887   -0.1413055421    0.0295008006
H        2.4256171262   -0.2441969516    3.2687631477
H       -1.7565208192   -1.7442419839    1.2595222473
H        2.8849390767    4.0903912699    2.2470821967
H        4.0774148611    2.9289802347    1.6087993241
H        3.9460456019    4.5497559787    0.8950807801
H        3.0545072622   -2.1631925065    4.7132376243
H        2.2434429544   -2.5255030595    6.2470689118
H        2.3591466541   -0.8415429268    5.6992601381
H        2.8385915013    2.8697690964   -0.5655016826
H        1.6787585264    4.0412736890    0.0642388031
H        0.2336721316   -2.6863596859    4.9640317551
25   

C       -0.0350450252   -0.6214214265    0.9241987506
C        1.4465039748   -0.5115178132    2.7729245118
C       -0.7698953217   -1.5754853965    1.6283453212
C        1.1049630317   -0.0657313930    1.5003941698
C        0.6611542794   -1.4765358105    3.4088659542
C        1.9627876354    0.9576757738    0.8134414703
C        3.5371200762    3.5983219777    1.3240245841
C        2.1919554920   -1.7150842726    5.3875785905
C        2.2984089836    3.2756364325    0.4941290435
N       -0.4269578195   -1.9963439162    2.8539832185
N        0.9459304629   -1.9770110725    4.6570298991
O        2.9035927720    0.6344003504    0.0965405485
O        1.5505995361    2.2105863176    1.0979212205
H       -0.3526545043   -0.3205580615   -0.0661849859
H        2.3223346264   -0.1116955366    3.2627780452
H       -1.6539526865   -1.9970875514    1.1642114602
H        3.2462137978    3.8705997265    2.3429881212
H        4.2081022129    2.7347832115    1.3614497040
H        4.0761957963    4.4377803323    0.8753577749
H        3.0600258599   -1.9451459921    4.7607420136
H        2.2397518742   -2.3483466997    6.2791918131
H        2.2360796836   -0.6685981109    5.7064260612
H        2.5930455336    3.0201969636   -0.5299692183
H        1.6622881821    4.1646209772    0.4385937912
H        0.2837519120   -2.6871740328    4.9492757081
25   

C       -0.0277070003   -0.7187294103    0.8644961536
C        1.3754249784   -0.4491834931    2.7559473177
C       -0.6980840617   -1.7240514821    1.5612431263
C        1.0313365455   -0.0455824336    1.4697048514
C        0.6585231019   -1.4712848773    3.3836937254
C        1.8358574251    1.0114430516    0.7719612644
C        3.6636305066    3.4768745888    1.2804860426
C        2.1440297244   -1.5498629563    5.4095518417
C        2.2765735371    3.3321219122    0.6618515112
N       -0.3613864053   -2.0930081244    2.8050979799
N        0.9493015807   -1.9303832613    4.6462899660
O        2.5741001756    0.7392423785   -0.1686604107
O        1.5694971188    2.2396673084    1.2656115009
H       -0.3291970020   -0.4701628646   -0.1454339810
H        2.1987158925    0.0306110373    3.2646742396
H       -1.5219944149   -2.2331019587    1.0746529930
H        3.5791403230    3.6306264921    2.3604483847
H        4.2619959638    2.5803346524    1.0918412728
H        4.1782498686    4.3366101920    0.8416340362
H        3.0479776398   -1.7095388784    4.8122552066
H        2.2201206297   -2.1656040071    6.3114184749
H        2.0855132075   -0.4998107648    5.7140200574
H        2.3646624939    3.1958454806   -0.4218607551
H        1.7105532051    4.2537309502    0.8299849241
H        0.3430648141   -2.6922425189    4.9297277426
25   

C       -0.0086039365   -0.7793791881    0.8176301348
C        1.3109634356   -0.3814774233    2.7450938763
C       -0.6141700855   -1.8317468869    1.5037180618
C        0.9698053838   -0.0121552857    1.4471367435
C        0.6627042135   -1.4550453431    3.3615681136
C        1.7132082991    1.0875839118    0.7530705716
C        3.7586082660    3.3800027293    1.2212347984
C        2.0880058805   -1.3943868741    5.4311554008
C        2.2811258710    3.3824325375    0.8405216136
N       -0.2854764442   -2.1625300857    2.7602713843
N        0.9554112974   -1.8820967480    4.6349147057
O        2.2447581733    0.9101320417   -0.3381048037
O        1.6120859241    2.2560960688    1.4249874581
H       -0.2952027644   -0.5667086959   -0.2050205140
H        2.0782801271    0.1663194318    3.2725205456
H       -1.3769188399   -2.4118758955    0.9973584655
H        3.8661703924    3.3978174821    2.3099136309
H        4.2537048122    2.4873172681    0.8269288850
H        4.2513314993    4.2631543523    0.8043232310
H        3.0214124817   -1.4837627849    4.8653603550
H        2.1853588861   -1.9920332522    6.3430940400
H        1.9317156670   -0.3498361335    5.7196449091
H        2.1775474858    3.3824146500   -0.2503457437
H        1.8158672840    4.3006294638    1.2125994023
H        0.4052320283   -2.6887371500    4.9086562281
25   

C        0.0460176481   -0.8233057403    0.7748350176
C        1.2668838117   -0.3354897300    2.7450069431
C       -0.5027222510   -1.9199051657    1.4385713837
C        0.9446829862    0.0132579000    1.4358329513
C        0.6795991645   -1.4563598848    3.3381341065
C        1.6187093045    1.1674762983    0.7636076975
C        3.8305562593    3.3160052172    1.1465347207
C        2.0219020229   -1.2943026908    5.4574007296
C        2.3131557945    3.4149347342    1.0209281863
N       -0.1925136775   -2.2301989268    2.7047364291
N        0.9601849434   -1.8654840815    4.6200812633
O        1.9595849167    1.1094872621   -0.4137392606
O        1.6882116498    2.2482142631    1.5742785240
H       -0.2229520990   -0.6282785026   -0.2563445974
H        1.9732484151    0.2634641530    3.3013938238
H       -1.2035794101   -2.5524610379    0.9062041090
H        4.1138354089    3.1958794730    2.1964897083
H        4.2069320394    2.4625366384    0.5743026917
H        4.2958794715    4.2266568701    0.7582975387
H        2.9803657297   -1.3145168162    4.9279834096
H        2.1281389861   -1.8823304545    6.3745800106
H        1.7775770898   -0.2640165400    5.7359034387
H        2.0345520876    3.5527574703   -0.0298391502
H        1.9639908852    4.2954426774    1.5693466469
H        0.4610906883   -2.7105694502    4.8750640138
25   

C        0.0996739488   -0.8761713016    0.7511833789
C        1.2213561849   -0.3218557174    2.7609736049
C       -0.3999544645   -2.0086551758    1.3924179162
C        0.9256943321    0.0121473110    1.4410200236
C        0.6867554951   -1.4808247732    3.3307469378
C        1.5266111330    1.2178166999    0.7911165458
C        3.8713519055    3.2486366882    1.0126191681
C        1.9345341680   -1.2390341186    5.5002677164
C        2.3601009520    3.4029720803    1.1550618179
N       -0.1120562845   -2.3057488423    2.6665214291
N        0.9475299442   -1.8771955052    4.6209402953
O        1.6811401974    1.2744422671   -0.4252512957
O        1.7815435498    2.2016743472    1.6846133256
H       -0.1533628801   -0.6918551289   -0.2861736303
H        1.8679911011    0.3132864686    3.3488677871
H       -1.0432730834   -2.6801135116    0.8356106424
H        4.3178616446    3.0083534775    1.9821306836
H        4.1091619891    2.4514066630    0.3017192400
H        4.3074238396    4.1823345412    0.6457511005
H        2.9134570624   -1.1974597545    5.0110839243
H        2.0399621277   -1.8191549098    6.4225589407
H        1.6131623559   -0.2266542915    5.7659259311
H        1.9190576453    3.6608067810    0.1856507879
H        2.1465158240    4.2289923855    1.8406471571
H        0.4929404846   -2.7523124897    4.8571036375
25   

C        0.1840437093   -0.9004588769    0.7300061148
C        1.1930840094   -0.3049847980    2.7862085373
C       -0.2740477953   -2.0666857055    1.3404059294
C        0.9360440605    0.0249057155    1.4567222080
C        0.7042529525   -1.4993528560    3.3237162224
C        1.4674248711    1.2804174288    0.8405157902
C        3.9019915816    3.2224376291    0.8634506331
C        1.8449795412   -1.2102395900    5.5461852342
C        2.4412601405    3.3950783001    1.2686289489
N       -0.0180673759   -2.3618531553    2.6212918975
N        0.9331523159   -1.8934627886    4.6207090572
O        1.4447072889    1.4499732283   -0.3752262067
O        1.9096351660    2.1599118889    1.7689637425
H       -0.0468804713   -0.7177243426   -0.3128778040
H        1.7742426347    0.3554337575    3.4130211473
H       -0.8584305846   -2.7657724218    0.7534385270
H        4.4907570690    2.8753019815    1.7177875649
H        3.9899735438    2.4962296421    0.0496028302
H        4.3081206396    4.1786189807    0.5209137737
H        2.8398600158   -1.1098118523    5.0995993945
H        1.9433486640   -1.7925684413    6.4678600516
H        1.4568194347   -0.2198230373    5.8053713647
H        1.8587476206    3.7596021392    0.4150485795
H        2.3742817056    4.1522212952    2.0561509096
H        0.5191825535   -2.7950498355    4.8305063748
25   

C       -0.2165355203   -0.1450523644    1.1671078352
C        1.6037171909   -0.9779460576    2.4288019946
C       -1.0725457436   -0.6644294864    2.1364777657
C        1.1663382290   -0.2939569980    1.2958189243
C        0.6809504423   -1.4630802229    3.3603947587
C        2.1228154593    0.2448069853    0.2788622929
C        4.7248571314    1.9348506350   -0.0428116787
C        2.4251309469   -2.2690238956    4.9830515666
C        4.4007574947    0.4708907929   -0.3241104401
N       -0.6293717732   -1.3147499006    3.2197488294
N        1.0438404301   -2.1312368298    4.5057536514
O        1.7210500499    0.8448500382   -0.7141556917
O        3.4125524201   -0.0123886527    0.5971802610
H       -0.6329992862    0.3739709725    0.3117972967
H        2.6571957786   -1.1409015087    2.6026438792
H       -2.1411791267   -0.5352736307    2.0095908701
H        3.8371902380    2.5579823092   -0.1882738214
H        5.0786444585    2.0507689799    0.9859763859
H        5.5068885504    2.2799063367   -0.7254107692
H        2.9026951448   -1.2867444502    5.0628277375
H        3.0034617231   -2.9048171071    4.3047658647
H        2.4305743909   -2.7313490679    5.9752656201
H        5.3107930905   -0.1263545792   -0.2097904096
H        4.0639252886    0.3569644992   -1.3606516484
H        0.2438688752   -2.3944703763    5.0705498008
25   

C       -0.2422358639   -0.2203955709    1.1243832967
C        1.6037034535   -0.9329982818    2.4227966294
C       -1.0812660415   -0.7914959114    2.0795590474
C        1.1442244831   -0.2867055744    1.2766654845
C        0.6966879151   -1.4741057488    3.3387404221
C        2.0854181185    0.3288016418    0.2899209015
C        4.8122249823    1.8146570135    0.0504840211
C        2.4582191333   -2.1555859452    4.9990818750
C        4.3351832273    0.4497364389   -0.4364518079
N       -0.6176372760   -1.4113989858    3.1723055447
N        1.0801139293   -2.1100896079    4.4956311472
O        1.6814431507    1.0949064532   -0.5802370034
O        3.3595006478   -0.0920785284    0.4652459360
H       -0.6738258728    0.2762343686    0.2633294612
H        2.6627656190   -1.0195227718    2.6169428221
H       -2.1534812338   -0.7281616545    1.9342993017
H        3.9808822179    2.5259728976    0.0696008680
H        5.2328936676    1.7289978401    1.0568351751
H        5.5837591741    2.2003695480   -0.6222091531
H        2.8697057007   -1.1440357890    5.0812747406
H        3.0890243067   -2.7561537521    4.3356282983
H        2.4749520048   -2.6112589518    5.9942449879
H        5.1891853940   -0.2332111617   -0.4834227966
H        3.9308301090    0.5369322055   -1.4511891061
H        0.2883032959   -2.4214246564    5.0473125715
25   

C       -0.2565974402   -0.2887257525    1.0772263483
C        1.5968584167   -0.8835585500    2.4247445353
C       -1.0818249498   -0.9130461440    2.0113278403
C        1.1261735148   -0.2730978143    1.2641520783
C        0.7033468797   -1.4821346708    3.3174985923
C        2.0555403988    0.4204452873    0.3194364472
C        4.8863823346    1.6903011411    0.1066713094
C        2.4622123251   -2.0450777116    5.0239057433
C        4.2563362582    0.4658154893   -0.5503334531
N       -0.6076449899   -1.5042469079    3.1159270643
N        1.0970248006   -2.0891723107    4.4863601248
O        1.6649786982    1.3332110077   -0.4023310350
O        3.2908826578   -0.1320214487    0.3264492013
H       -0.6947607998    0.1875265146    0.2081435005
H        2.6553794660   -0.8941105199    2.6405727059
H       -2.1520945350   -0.9152593432    1.8402498522
H        4.1272450418    2.4548822861    0.2980737576
H        5.3571510270    1.4087178719    1.0533226160
H        5.6485012364    2.1152828288   -0.5529554669
H        2.8061596530   -1.0090880068    5.1119049742
H        3.1463652312   -2.6059080495    4.3787926097
H        2.4831981411   -2.4959612091    6.0211717605
H        5.0387785356   -0.2684561823   -0.7661674499
H        3.8013406539    0.7487407252   -1.5062037109
H        0.3132094681   -2.4496939853    5.0191930759
25   

C       -0.2467571226   -0.3616859096    1.0403240500
C        1.5955274571   -0.8465957482    2.4477772817
C       -1.0606360383   -1.0444663596    1.9434213252
C        1.1245164764   -0.2642390156    1.2737204557
C        0.7133949917   -1.5072009879    3.3071558945
C        2.0434978861    0.5074387316    0.3801788917
C        4.9563320220    1.5598117433    0.1289556011
C        2.4444126503   -1.9547949890    5.0742918566
C        4.1695988469    0.5163248355   -0.6586039257
N       -0.5860545003   -1.6126766823    3.0603711916
N        1.1063901890   -2.0932366238    4.4868251093
O        1.6822488085    1.5477843580   -0.1610090247
O        3.2170185075   -0.1383438967    0.1910952182
H       -0.6842383977    0.0974887130    0.1619841513
H        2.6460244229   -0.7859349100    2.6928082420
H       -2.1226519386   -1.1121870822    1.7378028295
H        4.2875068141    2.3408570909    0.5033316353
H        5.4643966457    1.0877716315    0.9752008936
H        5.7064489831    2.0253217417   -0.5169279640
H        2.7137684577   -0.8975849112    5.1696591356
H        3.1885818630   -2.4694711918    4.4577966673
H        2.4587711128   -2.4003742727    6.0740612857
H        4.8625965830   -0.2329172426   -1.0540328478
H        3.6766500918    0.9897388806   -1.5151131523
H        0.3297829437   -2.5049487744    4.9924486797
25   

C       -0.2263034817   -0.4371276681    1.0142892617
C        1.5843951871   -0.8080383827    2.4970110842
C       -1.0283564151   -1.1828075198    1.8777597175
C        1.1230993140   -0.2501357501    1.3081342066
C        0.7145782893   -1.5356805877    3.3135765942
C        2.0296696126    0.5950169907    0.4669097161
C        4.9956226284    1.4483949464    0.1025640020
C        2.3944689878   -1.8741777161    5.1525319157
C        4.0514176539    0.6176702732   -0.7613103015
N       -0.5629859694   -1.7279780964    3.0102805677
N        1.0973778145   -2.1042949055    4.5050492608
O        1.7184717010    1.7353830691    0.1391611670
O        3.1182500865   -0.0962882479    0.0616781194
H       -0.6566535380    0.0008428785    0.1220098855
H        2.6174548934   -0.6759086668    2.7840028014
H       -2.0737623125   -1.3208391554    1.6271424008
H        4.4363289267    2.2038115812    0.6629401849
H        5.5279615025    0.8016011824    0.8063975976
H        5.7279564300    1.9573681278   -0.5308250171
H        2.5843332735   -0.8010170661    5.2604112247
H        3.1999983494   -2.3331747626    4.5701372382
H        2.3950306212   -2.3210771293    6.1518173644
H        4.6358284086   -0.1048361902   -1.3396194449
H        3.5333146318    1.2662361462   -1.4766085430
H        0.3298983730   -2.5714487932    4.9752010513
25   

C       -0.1719767168   -0.4912874290    0.9950890186
C        1.5738987443   -0.7582040912    2.5761807842
C       -0.9692343005   -1.2985991712    1.8063565922
C        1.1409319227   -0.2152010615    1.3706004875
C        0.7103087452   -1.5513323796    3.3363599830
C        2.0469643606    0.6835808577    0.5815031330
C        5.0414054077    1.3253279348    0.0344901076
C        2.3014365998   -1.7958944635    5.2665002934
C        3.9361578362    0.7405536163   -0.8396120118
N       -0.5328162280   -1.8239380700    2.9597133596
N        1.0641608495   -2.1095885419    4.5416002464
O        1.8398861313    1.8893530357    0.4972628810
O        3.0159077256   -0.0191290977   -0.0433951811
H       -0.5786393038   -0.0778849685    0.0805593435
H        2.5788848894   -0.5626089505    2.9205069705
H       -1.9866044341   -1.5050758032    1.4948183560
H        4.6214961638    2.0203539805    0.7679933473
H        5.5678296530    0.5235720282    0.5609519479
H        5.7588222691    1.8684079767   -0.5875601858
H        2.4103960824   -0.7130773410    5.3890424981
H        3.1698911186   -2.1944399833    4.7320083657
H        2.2731441052   -2.2489361178    6.2626143726
H        4.3829139800    0.0791964256   -1.5886291478
H        3.4228684514    1.5448832170   -1.3784544679
H        0.3039305878   -2.6309115876    4.9641665465
25   

C       -0.0790564682   -0.5503168960    0.9641136428
C        1.5730880981   -0.7082871741    2.6583183946
C       -0.8699695712   -1.4172286427    1.7184250447
C        1.1784032318   -0.1785902047    1.4342456214
C        0.7183616211   -1.5652969536    3.3564815372
C        2.0927780181    0.7569022311    0.6967483108
C        5.0819674321    1.1859797119   -0.0732448530
C        2.1960781700   -1.7222173594    5.3831109860
C        3.8352677093    0.8762054406   -0.8960675388
N       -0.4761771321   -1.9183923613    2.8976957734
N        1.0324325060   -2.1123873789    4.5777654807
O        2.0508303806    1.9700487278    0.8701981001
O        2.9135645128    0.0826175792   -0.1352794962
H       -0.4475238936   -0.1692969631    0.0200214581
H        2.5393153017   -0.4500843185    3.0665223370
H       -1.8456146581   -1.6953706087    1.3370068749
H        4.8208156221    1.7792806548    0.8082938132
H        5.5598821245    0.2561255454    0.2492715295
H        5.7932758721    1.7564798178   -0.6775335874
H        2.2219182350   -0.6358256022    5.5190687779
H        3.1224719082   -2.0545458013    4.9034282264
H        2.1355167391   -2.1867473096    6.3724663521
H        4.1259013248    0.3167759378   -1.7908290416
H        3.3695013637    1.8097440530   -1.2313356537
H        0.2840804048   -2.6880683002    4.9476036535
25   

C       -0.1916876423    0.4776498028    1.9952032407
C        1.5950536691   -0.5203387440    3.1958135702
C       -0.9808968823   -0.6161657144    2.3511027256
C        1.1296548116    0.5444761474    2.4313202580
C        0.7421269930   -1.5840783669    3.5020307586
C        2.0642035502    1.6652146493    2.0816458433
C        2.5879703713    3.8704187361   -0.0467226805
C        2.5119690421   -2.9334693896    4.6712726103
C        3.3551894056    2.6098431388    0.3406598167
N       -0.5205166014   -1.6322345398    3.0943513859
N        1.1324112966   -2.6751360119    4.2414882966
O        2.4469761532    2.4727182703    2.9214852154
O        2.4514899346    1.5905213845    0.7904744583
H       -0.6101069269    1.2678447938    1.3847810142
H        2.6149118076   -0.5169050636    3.5525549607
H       -2.0089545096   -0.6484485631    2.0093745666
H        1.8570319401    3.6403731582   -0.8277008714
H        2.0660317901    4.2827885560    0.8221666404
H        3.2820790820    4.6261384491   -0.4257489828
H        3.1864684649   -2.9405900446    3.8085530338
H        2.5720118139   -3.9120112025    5.1582287872
H        2.8395577110   -2.1730325096    5.3876758273
H        4.0978490566    2.8479463158    1.1104034815
H        3.8987437477    2.2377223289   -0.5334526292
H        0.3886906667   -3.3544843269    4.3572792195
25   

C       -0.1111930847    0.4083998036    1.8778434478
C        1.6169818908   -0.5496494558    3.1933458803
C       -0.9240174609   -0.6627585010    2.2492682947
C        1.1903809309    0.4867981722    2.3689902084
C        0.7426907803   -1.5923740582    3.5105850529
C        2.1632637171    1.5647232543    1.9994691637
C        2.5815913700    3.9770380947    0.0847446016
C        2.4550554746   -2.9060299999    4.7990635374
C        3.2614318252    2.6150107985    0.1870972129
N       -0.5035435071   -1.6478842159    3.0554510194
N        1.0943893249   -2.6548388906    4.3087342586
O        2.7714242440    2.2049230517    2.8511756367
O        2.3353237666    1.6271883076    0.6609239646
H       -0.4944283932    1.1703748502    1.2109107961
H        2.6231140727   -0.5394606766    3.5878620253
H       -1.9368439564   -0.7040793403    1.8656116317
H        1.7171521140    3.9163647147   -0.5832358947
H        2.2488458311    4.3135682801    1.0714090952
H        3.2841736330    4.7140633283   -0.3149111674
H        3.1607948512   -2.9516204611    3.9628950558
H        2.4889539532   -3.8651969795    5.3254734930
H        2.7626640808   -2.1203966238    5.4969057067
H        4.1366833960    2.6840691324    0.8427444965
H        3.6184709429    2.3166162948   -0.8035977056
H        0.3413653118   -3.3241020263    4.4226876177
25   

C       -0.0554134346    0.3215691512    1.7613408852
C        1.6311893514   -0.5846201496    3.1663688020
C       -0.8890188410   -0.7197594409    2.1693979747
C        1.2362900203    0.4113282767    2.2778993148
C        0.7371651083   -1.5994207941    3.5170908356
C        2.2366573867    1.4520709803    1.8829800443
C        2.5848939029    4.0588589195    0.2269725427
C        2.4034684915   -2.8610469395    4.9131232594
C        3.1463935048    2.6503707197    0.0571416893
N       -0.4988868851   -1.6652717882    3.0360519276
N        1.0574943183   -2.6221775366    4.3778976852
O        3.0168975443    1.9369440904    2.6971431924
O        2.2153311514    1.6766181279    0.5502564483
H       -0.4149826855    1.0511111523    1.0464536588
H        2.6280926797   -0.5665122328    3.5840414096
H       -1.8931972252   -0.7705756003    1.7647243564
H        1.6291452941    4.1484060722   -0.2980376611
H        2.4336631769    4.2852347168    1.2868673833
H        3.2843495524    4.7903986448   -0.1879444356
H        3.1279688081   -2.9580099312    4.0976230714
H        2.4141318897   -3.7912677906    5.4900288311
H        2.7038216722   -2.0427179540    5.5756697935
H        4.1116910783    2.5700448708    0.5694527396
H        3.3244829539    2.4607062031   -1.0060104466
H        0.2945709046   -3.2769901360    4.5084204195
25   

C       -0.0131327157    0.2326634215    1.6523120488
C        1.6473094957   -0.6079978665    3.1289485267
C       -0.8614874771   -0.7766175033    2.1073989349
C        1.2752272714    0.3374285869    2.1769973632
C        0.7388005057   -1.5931723074    3.5240681867
C        2.2928626729    1.3492863493    1.7544323251
C        2.6183561415    4.1246357421    0.3855720211
C        2.3739515655   -2.7885809275    5.0121138163
C        3.0333384479    2.7164442039   -0.0299081447
N       -0.4912667167   -1.6754539731    3.0304739287
N        1.0371828184   -2.5675278386    4.4467660118
O        3.2076253367    1.6910241590    2.4992489559
O        2.1031844690    1.7486963904    0.4769495955
H       -0.3610632707    0.9256433688    0.8963125161
H        2.6375901750   -0.5785955611    3.5617671650
H       -1.8615387109   -0.8402600683    1.6944012654
H        1.6097259634    4.3421674659    0.0216687582
H        2.6344250323    4.2223909127    1.4753686377
H        3.3113947446    4.8567755941   -0.0389497220
H        3.1081068962   -2.9356604673    4.2128959670
H        2.3686469016   -3.6862545813    5.6385196843
H        2.6732712486   -1.9381196926    5.6333867100
H        4.0505192484    2.5092628198    0.3210333669
H        3.0463503927    2.6538568048   -1.1225592022
H        0.2666841221   -3.2077187695    4.6026591895
25   

C        0.0079498185    0.1322046442    1.5457535823
C        1.6517749399   -0.6378501857    3.0786437968
C       -0.8513052338   -0.8437445202    2.0501066277
C        1.2967201392    0.2531015914    2.0689075051
C        0.7322685126   -1.5920601064    3.5215158559
C        2.3240808932    1.2414399867    1.6137058883
C        2.6697280471    4.1512835373    0.5571096826
C        2.3446276037   -2.7108659281    5.0920685327
C        2.9106865728    2.7865932944   -0.0810913008
N       -0.4945380010   -1.6929837416    3.0237365240
N        1.0148357586   -2.5135136657    4.5018486516
O        3.3513451376    1.4436901467    2.2565442769
O        1.9878642539    1.8184027493    0.4385311760
H       -0.3350653986    0.7865095991    0.7538592382
H        2.6373281326   -0.5952203103    3.5210118371
H       -1.8497049044   -0.9213358923    1.6354958671
H        1.6402482452    4.4745282332    0.3761510695
H        2.8459027891    4.1055784475    1.6361427789
H        3.3517695928    4.8892377595    0.1249137561
H        3.0850373139   -2.9097304833    4.3100057324
H        2.3265289376   -3.5701853929    5.7699051414
H        2.6448395401   -1.8276945882    5.6654403076
H        3.9476341553    2.4748135470    0.0871467884
H        2.7657420881    2.8659671454   -1.1630583099
H        0.2382433040   -3.1383628299    4.6869142856
25   

C        0.0014647507    0.0232529926    1.4471722979
C        1.6331767285   -0.6590573192    3.0337092134
C       -0.8620722436   -0.9224977796    1.9993762635
C        1.2886617472    0.1698137672    1.9688291751
C        0.7095276938   -1.5862156024    3.5229892419
C        2.3164778368    1.1413422201    1.4788156812
C        2.7401600965    4.1390549936    0.7286299148
C        2.3081455645   -2.6137528842    5.1680698343
C        2.7782792704    2.8526384289   -0.0906054281
N       -0.5130962520   -1.7157040007    3.0217504781
N        0.9826265414   -2.4480323494    4.5587150961
O        3.4312454135    1.2111947136    1.9909388835
O        1.8634430729    1.8860432065    0.4460764992
H       -0.3383535631    0.6338910156    0.6198219930
H        2.6136319896   -0.5916102570    3.4841739180
H       -1.8578819142   -1.0221889391    1.5832611109
H        1.7247787093    4.5463129673    0.7420796238
H        3.0625322416    3.9477227429    1.7566642751
H        3.4115372250    4.8809485749    0.2865761741
H        3.0537017903   -2.8562324762    4.4033850683
H        2.2842890593   -3.4341817634    5.8923208749
H        2.6055666971   -1.7004753432    5.6937469055
H        3.8002506256    2.4580222455   -0.1163859403
H        2.4892494637    3.0759388057   -1.1223791886
H        0.2046077127   -3.0621323890    4.7716544991
