26   

C        0.3833039961   -0.4961921340   -0.3399102445
C        7.4795932426   -0.2461206420    4.7883797939
C        1.5796903582    0.1762216977   -0.0742127467
C       -0.1360159609   -1.3877802446    0.6027433777
C        6.9671840151   -0.6875825287    3.5650174798
C        6.6066200364    0.1751778562    5.7951811623
C        2.2544507850   -0.0445448163    1.1325679114
C        0.5399919607   -1.6030475914    1.8093928426
C        5.5836937617   -0.7062930889    3.3506197684
C        5.2240149147    0.1516909837    5.5779178114
C        1.7419217659   -0.9349446795    2.0873292042
C        4.6975707677   -0.2883288725    4.3541982531
C        2.4376097912   -1.1515483669    3.3572829463
C        3.2500796820   -0.3257621338    4.1367681764
H       -0.1412098808   -0.3255151712   -1.2732790159
H        8.5505397171   -0.2321591074    4.9566204792
H        1.9841274912    0.8712045845   -0.8012021023
H       -1.0637277271   -1.9110952401    0.4009157906
H        7.6406754997   -1.0184611589    2.7827034215
H        6.9997197457    0.5179710328    6.7455529137
H        3.1791353681    0.4840989839    1.3342574210
H        0.1262927773   -2.2926856702    2.5358894245
H        5.1929642670   -1.0546439838    2.4013228001
H        4.5553879470    0.4757394883    6.3668875293
H        2.3066477329   -2.1434000618    3.7732227152
H        2.6990363391    0.4356825199    4.6757303341
26   

C        0.6188706604   -0.5015164275   -0.3404998154
C        7.3975165403   -0.1895055780    4.5746702879
C        1.7690878914    0.1881657266    0.0528605685
C        0.0251731447   -1.4158948526    0.5336122624
C        6.7884945577   -0.6964069949    3.4233488069
C        6.6082199114    0.2577205366    5.6375129330
C        2.3232880641   -0.0374933264    1.3185695772
C        0.5818239281   -1.6381904698    1.7985293652
C        5.3923794011   -0.7551588051    3.3367905036
C        5.2127107561    0.1966365891    5.5474698202
C        1.7370586981   -0.9534901319    2.2057626523
C        4.5882051539   -0.3088178810    4.3969351591
C        2.3031591079   -1.1803296901    3.5392687423
C        3.1259291432   -0.3847065777    4.3186123963
H        0.1871559096   -0.3260668465   -1.3194026431
H        8.4785600387   -0.1456019836    4.6441481904
H        2.2308839905    0.9011341542   -0.6205780053
H       -0.8682573399   -1.9515222018    0.2334187530
H        7.3969235392   -1.0478711864    2.5978880415
H        7.0764204181    0.6497343257    6.5332502378
H        3.2107827697    0.5088615107    1.6166318546
H        0.1097530217   -2.3460904756    2.4697123756
H        4.9305453528   -1.1577498024    2.4425741271
H        4.6110417485    0.5418464526    6.3801075383
H        2.0528611182   -2.1338161863    3.9888982167
H        2.5945401886    0.3047256839    4.9637955792
26   

C        0.8385565870   -0.4905489740   -0.3317119393
C        7.3150127340   -0.1537946036    4.3740007470
C        1.9048633563    0.2505752196    0.1844740859
C        0.2188669872   -1.4590694982    0.4619497053
C        6.6349296378   -0.7647949908    3.3171719116
C        6.5960393463    0.3626716748    5.4548748498
C        2.3487895586    0.0231324843    1.4925575458
C        0.6668151407   -1.6852764612    1.7685993298
C        5.2384112055   -0.8593348810    3.3431983945
C        5.1996893648    0.2683147199    5.4764616082
C        1.7372670033   -0.9493023998    2.3005710355
C        4.5026497956   -0.3418679163    4.4217904282
C        2.1831580841   -1.1832362847    3.6795195389
C        3.0394918692   -0.4517754391    4.4675231481
H        0.4915187851   -0.3129010831   -1.3433455307
H        8.3967251097   -0.0831161415    4.3567209020
H        2.3869847585    1.0051758454   -0.4264516993
H       -0.6110311725   -2.0339100280    0.0669175264
H        7.1885684079   -1.1696260876    2.4777137217
H        7.1196661998    0.8343190256    6.2786383440
H        3.1710613613    0.6117979581    1.8829093370
H        0.1740061610   -2.4363336231    2.3747526057
H        4.7247518476   -1.3440095258    2.5208366087
H        4.6549101095    0.6689952536    6.3232442804
H        1.7952868188   -2.0787860561    4.1502390936
H        2.5496040225    0.1470584568    5.2260996724
26   

C        1.0328929214   -0.4710537062   -0.3081002861
C        7.2298948629   -0.1366152484    4.1972981914
C        2.0003315760    0.3252936274    0.3101970074
C        0.4133870678   -1.4945832517    0.4131416675
C        6.5034134061   -0.8516183541    3.2415811174
C        6.5648308460    0.4529744435    5.2751037093
C        2.3446431052    0.0990452731    1.6481111882
C        0.7635486894   -1.7210736903    1.7492401568
C        5.1148194587   -0.9781928271    3.3662323271
C        5.1757918039    0.3284681724    5.3940013521
C        1.7331473021   -0.9291370042    2.3847261861
C        4.4319337776   -0.3872667625    4.4424104714
C        2.0722477920   -1.1659128237    3.7954234415
C        2.9765767456   -0.5276293742    4.5951040238
H        0.7622568117   -0.2938921435   -1.3428691882
H        8.3058560394   -0.0416881381    4.1041718365
H        2.4831933116    1.1215644513   -0.2446549592
H       -0.3408157468   -2.1122179922   -0.0611054049
H        7.0148008446   -1.3120209336    2.4039802252
H        7.1248093107    1.0050410439    6.0213284008
H        3.0915367565    0.7301771981    2.1160049393
H        0.2718477756   -2.5162614565    2.2971496534
H        4.5661439504   -1.5424021770    2.6207613146
H        4.6740523844    0.7880641287    6.2374043078
H        1.5340854745   -1.9731593077    4.2780455894
H        2.5479039513   -0.0470469796    5.4665798003
26   

C        1.2068015527   -0.4515408316   -0.2812607001
C        7.1495648987   -0.1240911994    4.0397073328
C        2.0738101918    0.3953595102    0.4141216903
C        0.6005090032   -1.5203116537    0.3834831196
C        6.3996643962   -0.9324680702    3.1813944534
C        6.5209116325    0.5277706959    5.1034878949
C        2.3297731220    0.1750333057    1.7726436373
C        0.8642032862   -1.7415920160    1.7401736122
C        5.0245680293   -1.0909576935    3.3902808038
C        5.1445792390    0.3723975301    5.3051305209
C        1.7308564102   -0.8981437000    2.4529201201
C        4.3782722717   -0.4382306034    4.4529855975
C        1.9778081076   -1.1317102303    3.8850696819
C        2.9363932139   -0.6092100946    4.6942701585
H        1.0040167686   -0.2789258761   -1.3321816819
H        8.2154548790   -0.0045331215    3.8818015730
H        2.5476345914    1.2256225081   -0.0969288170
H       -0.0762443883   -2.1773559075   -0.1508088880
H        6.8821696632   -1.4398717807    2.3539002183
H        7.0993902471    1.1524435995    5.7745448042
H        3.0004746765    0.8432300733    2.3006851832
H        0.3852904426   -2.5729422067    2.2439448346
H        4.4562157285   -1.7252620483    2.7196073064
H        4.6702284972    0.8819541438    6.1355724106
H        1.2931176125   -1.8162647847    4.3719507047
H        2.5824949850   -0.2754344791    5.6626805485
26   

C        1.3461343408   -0.4384850351   -0.2495895487
C        7.0740491229   -0.1158237673    3.9182129840
C        2.1328466786    0.4459876493    0.4931657112
C        0.7477969340   -1.5319677781    0.3817050721
C        6.3168453274   -0.9902654048    3.1340654553
C        6.4680627374    0.5706317872    4.9735830414
C        2.3157802295    0.2385408844    1.8654033288
C        0.9398471984   -1.7404156349    1.7524308402
C        4.9575528015   -1.1803351098    3.4092626279
C        5.1067386372    0.3839563607    5.2403707228
C        1.7244372075   -0.8588764594    2.5116147502
C        4.3346705475   -0.4932925287    4.4635820812
C        1.8974717575   -1.0806789140    3.9581562965
C        2.9080072388   -0.6951200967    4.7726542423
H        1.1997520846   -0.2761538879   -1.3114493574
H        8.1279751353    0.0285257308    3.7090980639
H        2.6014757522    1.2946250085    0.0082162164
H        0.1331767486   -2.2182591933   -0.1895913112
H        6.7811045500   -1.5236116851    2.3124937158
H        7.0524829360    1.2466731607    5.5872231894
H        2.9258406158    0.9328400460    2.4319792432
H        0.4697849343   -2.5911986003    2.2315212219
H        4.3807828463   -1.8633335965    2.7960061295
H        4.6478444944    0.9207805553    6.0622916167
H        1.0887644582   -1.6131561387    4.4451971816
H        2.6302705321   -0.5297229285    5.8071852196
26   

C        1.4393339830   -0.4382097430   -0.2215058463
C        7.0156585065   -0.1044845964    3.8408912315
C        2.1859845120    0.4663674150    0.5384852937
C        0.8297828831   -1.5303689202    0.4016971819
C        6.2607337613   -1.0116298817    3.0922281626
C        6.4218183179    0.5809606607    4.9040264520
C        2.3175861554    0.2800527616    1.9195926620
C        0.9711124713   -1.7174943672    1.7816693034
C        4.9160754094   -1.2350758890    3.4107386589
C        5.0745967093    0.3607876858    5.2135929618
C        1.7150086333   -0.8157118196    2.5569122643
C        4.3061037898   -0.5490437492    4.4725014654
C        1.8378587037   -1.0165489958    4.0133602846
C        2.8927851185   -0.7840488366    4.8243794472
H        1.3329699130   -0.2926921786   -1.2905330384
H        8.0583396421    0.0662580892    3.5980543651
H        2.6638533520    1.3135066544    0.0600075819
H        0.2462855017   -2.2322512633   -0.1831122501
H        6.7150984925   -1.5437054911    2.2643439475
H        7.0045975289    1.2823950766    5.4900870138
H        2.8981006592    0.9870438850    2.5013986658
H        0.4942964981   -2.5671563633    2.2560910934
H        4.3382872724   -1.9410551154    2.8250068266
H        4.6230072598    0.8966593283    6.0401907025
H        0.9402796066   -1.3733737665    4.5052070980
H        2.6796396114   -0.8025410177    5.8869772249
26   

C        1.5728312944   -0.9307093443   -0.2463393433
C        6.8838790362    0.3878012646    3.8644227766
C        2.6635598083   -1.5469928355    0.3735516645
C        0.5696848356   -0.3483934491    0.5331938644
C        5.8028874458    1.0080922447    3.2316041270
C        6.6520387109   -0.6118400750    4.8131292756
C        2.7467282961   -1.5836654051    1.7704501667
C        0.6614137328   -0.3801437898    1.9295562415
C        4.4933091635    0.6310420031    3.5516464222
C        5.3410312161   -0.9913746916    5.1237317481
C        1.7490723865   -0.9973971806    2.5639639447
C        4.2476890361   -0.3753097701    4.4980020711
C        1.8227902458   -1.0366415978    4.0384166303
C        2.8700834146   -0.7758785342    4.8486826206
H        1.5050642671   -0.9048687147   -1.3280235249
H        7.8985644339    0.6813800947    3.6204401571
H        3.4464210516   -1.9971054214   -0.2259944329
H       -0.2800681128    0.1272239790    0.0569384811
H        5.9767433055    1.7814957650    2.4923132885
H        7.4871332664   -1.0929825033    5.3093455414
H        3.5959857619   -2.0626060070    2.2446311683
H       -0.1205895815    0.0737016887    2.5269615383
H        3.6595238188    1.1157109915    3.0562970850
H        5.1696333053   -1.7674025158    5.8604823347
H        0.9145575346   -1.3604724723    4.5335066801
H        2.6656306328   -0.8274329344    5.9118888885
26   

C        1.5457716337   -0.9758575135   -0.2497047091
C        6.8859790912    0.4252693021    3.9017865061
C        2.6288984067   -1.5909781605    0.3841681183
C        0.5563229945   -0.3532207938    0.5158392051
C        5.7948196843    1.0376762766    3.2791633457
C        6.6715021025   -0.6040711111    4.8222200236
C        2.7180499726   -1.5865765568    1.7811350668
C        0.6539230382   -0.3438229031    1.9121517623
C        4.4923135464    0.6233874916    3.5813793778
C        5.3677366873   -1.0209302971    5.1150215631
C        1.7339073855   -0.9599924314    2.5614257367
C        4.2634130491   -0.4129854050    4.4998263612
C        1.8115432713   -0.9581208593    4.0346693904
C        2.8948944021   -0.8509440591    4.8343568308
H        1.4732275315   -0.9823249730   -1.3313706141
H        7.8950592879    0.7481133310    3.6719252088
H        3.4011345952   -2.0725815784   -0.2046043346
H       -0.2877061712    0.1215445641    0.0286824402
H        5.9552335392    1.8343431591    2.5618538059
H        7.5146022048   -1.0791485832    5.3106802181
H        3.5614017139   -2.0667257521    2.2644009018
H       -0.1185630666    0.1411027944    2.4973604782
H        3.6518188614    1.1045108525    3.0941225398
H        5.2113912743   -1.8196281159    5.8305589474
H        0.8649678861   -1.0930373783    4.5452369923
H        2.7310805733   -1.0910823427    5.8785720545
26   

C        1.4641812200   -1.0142696711   -0.2837708007
C        6.9374415510    0.4534227253    3.9785083843
C        2.5749909583   -1.5904556850    0.3383258374
C        0.4839482047   -0.3872370669    0.4896777533
C        5.8558823523    1.0394789423    3.3154391690
C        6.7135081746   -0.5803461706    4.8914299664
C        2.7012281628   -1.5430058389    1.7316467541
C        0.6179751224   -0.3348318869    1.8819841593
C        4.5531871045    0.5946425106    3.5696758505
C        5.4101015862   -1.0277475119    5.1367682333
C        1.7261975095   -0.9118627249    2.5206768110
C        4.3141467351   -0.4465830274    4.4808867565
C        1.8400553175   -0.8673681310    3.9892302367
C        2.9466124208   -0.9145482240    4.7680329607
H        1.3628843804   -1.0546222405   -1.3623976151
H        7.9463647576    0.8003553264    3.7860588875
H        3.3397821285   -2.0760713132   -0.2568605441
H       -0.3815794784    0.0573050047    0.0117895599
H        6.0238580868    1.8401585272    2.6043335407
H        7.5490439269   -1.0350114371    5.4113263864
H        3.5658352394   -1.9958569263    2.2034670200
H       -0.1492105829    0.1530257215    2.4716779859
H        3.7216745662    1.0586645191    3.0515008946
H        5.2484557471   -1.8293401449    5.8478506909
H        0.8998579172   -0.8077965370    4.5251671635
H        2.8003200543   -1.3411038882    5.7536277874
26   

C        1.3353405722   -1.0518154698   -0.3281296519
C        7.0146685781    0.4737159105    4.0951117906
C        2.5027543962   -1.5521132983    0.2544158013
C        0.3594133373   -0.4573235159    0.4755401304
C        5.9659892430    1.0139537176    3.3461607640
C        6.7546085930   -0.5381975733    5.0225486062
C        2.6905237502   -1.4610540317    1.6386498053
C        0.5537340760   -0.3618413745    1.8583677805
C        4.6596648352    0.5449744380    3.5284496206
C        5.4482469835   -1.0093998945    5.1971240086
C        1.7200029053   -0.8619255243    2.4585782658
C        4.3839256918   -0.4750470931    4.4540162597
C        1.8966032722   -0.7745877339    3.9171624202
C        3.0129778578   -0.9659107416    4.6681191572
H        1.1866512044   -1.1262386281   -1.3994391730
H        8.0259900286    0.8395932974    3.9583132592
H        3.2636286406   -2.0136140398   -0.3645395112
H       -0.5498493608   -0.0717666000    0.0285959678
H        6.1622405237    1.7986979365    2.6245792190
H        7.5643112673   -0.9572551714    5.6090161699
H        3.5986981114   -1.8582494766    2.0775296577
H       -0.2125251589    0.0995676976    2.4701166385
H        3.8551305733    0.9770537272    2.9443322834
H        5.2604217034   -1.7930224248    5.9216557366
H        1.0051594221   -0.5265174475    4.4813071288
H        2.8654530353   -1.5650337397    5.5590502591
26   

C        1.1705971232   -1.1054256646   -0.3562461789
C        7.0866222643    0.4958545825    4.2538875319
C        2.4041528297   -1.5069925803    0.1628707023
C        0.2036480089   -0.5642601040    0.4944815008
C        6.0941626415    0.9789245834    3.3971101032
C        6.7689515275   -0.4793177097    5.2024206764
C        2.6678130414   -1.3694963701    1.5308386798
C        0.4724482185   -0.4237995015    1.8608967547
C        4.7863079160    0.4886997908    3.4916790874
C        5.4613645692   -0.9706814987    5.2909687828
C        1.7067090900   -0.8232035636    2.3977480255
C        4.4529880106   -0.4949113128    4.4377719916
C        1.9637533199   -0.6898890550    3.8390264198
C        3.0798227715   -1.0052612112    4.5598578193
H        0.9636584260   -1.2155393349   -1.4147495577
H        8.0988178013    0.8779841063    4.1845195082
H        3.1574450094   -1.9286006110   -0.4927671611
H       -0.7564068557   -0.2552726155    0.0969556151
H        6.3351576766    1.7364489622    2.6601293257
H        7.5346715659   -0.8539999865    5.8721150058
H        3.6266909255   -1.6926382541    1.9197263930
H       -0.2886500747   -0.0057944310    2.5092009230
H        4.0257524668    0.8788783970    2.8250301590
H        5.2289765423   -1.7243341559    6.0341404331
H        1.1532286470   -0.2702578495    4.4231062578
H        2.9235216314   -1.7514347170    5.3299131115
26   

C        0.9809277224   -1.1725708358   -0.3759346885
C        7.1560024482    0.5224898542    4.4418826740
C        2.2774815057   -1.4660033915    0.0548568569
C        0.0390165587   -0.6919720943    0.5371777097
C        6.2457263824    0.9463783566    3.4700520313
C        6.7594514742   -0.4102856782    5.4034566410
C        2.6295997026   -1.2796632866    1.3969407525
C        0.3952490311   -0.5048360732    1.8777862811
C        4.9412561840    0.4382620394    3.4618461397
C        5.4550615042   -0.9177806092    5.3908537226
C        1.6939252956   -0.7944049628    2.3251050306
C        4.5298448684   -0.5020856776    4.4204565529
C        2.0476176613   -0.6125260341    3.7387183635
C        3.1587492670   -1.0277267593    4.4319140340
H        0.7059694280   -1.3198155658   -1.4142574944
H        8.1654360656    0.9178960911    4.4514883578
H        3.0109721500   -1.8419019290   -0.6492634613
H       -0.9690132576   -0.4663919303    0.2082195974
H        6.5478455167    1.6721390264    2.7236686574
H        7.4611635085   -0.7393193892    6.1614542933
H        3.6363702177   -1.5200488825    1.7189044292
H       -0.3465988436   -0.1358762003    2.5762832637
H        4.2430962296    0.7828721470    2.7076231952
H        5.1594533886   -1.6372253511    6.1454302412
H        1.3350791722   -0.0493303818    4.3295907847
H        2.9935738786   -1.8874530379    5.0703642430
26   

C        0.7808891610   -1.2475592208   -0.3984114534
C        7.2293396435    0.5545267551    4.6409301195
C        2.1272590411   -1.4426596341   -0.0780678391
C       -0.1112046737   -0.8160317594    0.5867782268
C        6.4239237696    0.9324910778    3.5630408393
C        6.7388232068   -0.3441568368    5.5919329689
C        2.5789634835   -1.2060655550    1.2257949003
C        0.3441002631   -0.5813300896    1.8894327049
C        5.1304491208    0.4115672326    3.4379846030
C        5.4447753642   -0.8621658882    5.4638468870
C        1.6934085966   -0.7720619192    2.2244121727
C        4.6259597156   -0.4921036902    4.3859685320
C        2.1578759491   -0.5400479043    3.5956709670
C        3.2656144878   -1.0267294776    4.2692673555
H        0.4291234355   -1.4326481932   -1.4070804684
H        8.2303325334    0.9589089694    4.7404264668
H        2.8221148193   -1.7808634063   -0.8382606010
H       -1.1567671851   -0.6653658242    0.3432022750
H        6.7989969831    1.6322016878    2.8249186232
H        7.3593732274   -0.6384933955    6.4306907770
H        3.6235956195   -1.3683560190    1.4653954235
H       -0.3580174876   -0.2515930377    2.6462444880
H        4.5112916182    0.7176834795    2.6025565526
H        5.0734642761   -1.5545945965    6.2102583956
H        1.5455426497    0.1363450377    4.1800457507
H        3.0960897908   -1.9672395585    4.7798117990
26   

C        0.5719529418   -1.3506191067   -0.4057442112
C        7.2868508583    0.6066136160    4.8608831786
C        1.9481344860   -1.4925098867   -0.2056150891
C       -0.2412872875   -0.9173408939    0.6450336742
C        6.5921073905    0.9787327501    3.7063600901
C        6.7095095365   -0.2965041839    5.7576987699
C        2.5082546826   -1.2004378985    1.0439072080
C        0.3222670283   -0.6296479097    1.8936288510
C        5.3224189092    0.4469071806    3.4506275836
C        5.4385045289   -0.8232349974    5.4999316892
C        1.7020788707   -0.7673012048    2.1067256792
C        4.7316146768   -0.4582310334    4.3443728015
C        2.2851939880   -0.4799935910    3.4189424652
C        3.3957663806   -0.9998907843    4.0864675477
H        0.1363201774   -1.5775614338   -1.3722561629
H        8.2695674335    1.0184084569    5.0611724336
H        2.5819894845   -1.8315939143   -1.0169946529
H       -1.3090750111   -0.8062470376    0.4942746446
H        7.0348604246    1.6815724283    3.0098890501
H        7.2446628533   -0.5875533797    6.6544385900
H        3.5755385690   -1.3175057602    1.1935361296
H       -0.3177575609   -0.2991145945    2.7033549802
H        4.7871513731    0.7437182825    2.5558747523
H        4.9975326225   -1.5190066651    6.2041955714
H        1.7641115655    0.2862177822    3.9804694478
H        3.2349701361   -1.9964983693    4.4799613550
