23   

C       -4.8416299845   -6.8692183220   -2.0309477570
C        1.3431823062   -4.7740428739    3.1348953024
C       -3.3355728355   -4.8946904544   -1.4716640763
C        1.0075059023   -5.4029453647    1.9787413016
C       -3.7803900091   -6.5083588490    0.1735634864
C       -4.0162626999   -6.1335250177   -1.1225718778
C       -2.5758945630   -4.3762083332   -0.4440670977
C        0.9547037573   -3.3983637045    3.3320500409
C       -0.0942497919   -3.3518676531    1.2870261918
C       -1.8558197225   -3.1092718631   -0.4969829350
C       -0.8855133087   -2.6259284124    0.3053439557
N       -5.5091008269   -7.4711879663   -2.7713669899
N        0.2540278724   -2.7157142641    2.3639610168
N        0.2798409224   -4.6740263409    1.0393284152
O        1.2288790237   -2.8429616815    4.3817465123
S       -2.7240138819   -5.3803129534    1.0105313937
H        1.8958177872   -5.2664897127    3.9223767892
H       -3.4313382499   -4.4278061423   -2.4466299848
H        1.3003304302   -6.4368113130    1.8104693661
H       -4.1975562529   -7.3957224790    0.6361924908
H       -2.1522735423   -2.4477500739   -1.3049582102
H       -0.7249362145   -1.5548806542    0.2998271593
H       -0.0047813973   -5.0671388658    0.1495609393
23   

C       -4.5182530480   -7.0174860836   -1.9790518136
C        1.3984831828   -4.8492273135    3.0723756771
C       -3.1738407547   -4.9317808196   -1.4118557403
C        0.9016803677   -5.4680812987    1.9702424608
C       -3.8130070458   -6.3961232434    0.3091423983
C       -3.8621963486   -6.1599481320   -1.0399982804
C       -2.6029852662   -4.2822133003   -0.3396613593
C        1.1480826716   -3.4415409095    3.2680831017
C       -0.0771854443   -3.3399119777    1.3252152093
C       -1.8925396744   -3.0039293597   -0.3854846690
C       -0.8861604128   -2.5637883956    0.3957690864
N       -5.0469917995   -7.7187250300   -2.7436982888
N        0.4205684327   -2.7178613445    2.3505602418
N        0.1537121651   -4.6956601791    1.0835199914
O        1.5671348883   -2.8926178318    4.2723812227
S       -2.9291805041   -5.1462487404    1.1738659429
H        1.9801254994   -5.3733341593    3.8173607666
H       -3.1269839159   -4.5684794523   -2.4334945748
H        1.0873094894   -6.5266311801    1.8028817033
H       -4.2688855485   -7.2521288331    0.7939851968
H       -2.1816006495   -2.3374566203   -1.1920862114
H       -0.6841941082   -1.4997019884    0.3984842643
H       -0.2522272665   -5.0799777419    0.2376890955
23   

C       -4.2182186476   -7.1235507128   -2.0293636337
C        1.3140788676   -5.0673250683    3.0499950544
C       -3.0406647212   -4.9613266818   -1.3832767003
C        0.6735684640   -5.6364487273    1.9964287453
C       -3.9238362188   -6.3418982622    0.2995248671
C       -3.7513815171   -6.1884673414   -1.0519818308
C       -2.6858893365   -4.2274822960   -0.2751960064
C        1.2036908324   -3.6440528948    3.2613184656
C       -0.1606339144   -3.4267711657    1.4224374994
C       -1.9832621180   -2.9375394695   -0.2452337877
C       -0.9595047789   -2.5737040771    0.5508525503
N       -4.5922135591   -7.8880268631   -2.8240597160
N        0.4683725373   -2.8560145112    2.4048522308
N       -0.0749057741   -4.7980361837    1.1727052636
O        1.7553136811   -3.1366624093    4.2225026068
S       -3.2297358475   -5.0122676051    1.2175847812
H        1.9097624500   -5.6428056031    3.7442163600
H       -2.8219775428   -4.6607261307   -2.4031192045
H        0.7508461265   -6.7065270370    1.8175354792
H       -4.4340400960   -7.1828447208    0.7559850983
H       -2.2555904950   -2.2283763401   -1.0206742158
H       -0.7110053866   -1.5204269291    0.5967866308
H       -0.5822570440   -5.1419311212    0.3646004392
23   

C       -3.9193431667   -7.2373922035   -2.0028186482
C        1.2718560364   -5.1764317245    2.9825195122
C       -2.8995899590   -5.0004519707   -1.3428390895
C        0.5037010702   -5.7178811310    2.0023788060
C       -4.0046210929   -6.2889973938    0.2811347981
C       -3.6286853122   -6.2231707119   -1.0361444278
C       -2.7462589441   -4.1799471092   -0.2514413885
C        1.2797565351   -3.7452263388    3.1665834099
C       -0.2117648466   -3.4637926453    1.4374562941
C       -2.0581094473   -2.8783394278   -0.1748922471
C       -1.0065030573   -2.5665569438    0.6048532534
N       -4.1495424714   -8.0663388152   -2.7873859663
N        0.5336156890   -2.9224660554    2.3531300281
N       -0.2515647856   -4.8433721948    1.2238714517
O        1.9475248145   -3.2602398715    4.0635571935
S       -3.4883520042   -4.8783586471    1.1962062999
H        1.8843290232   -5.7799416535    3.6371782188
H       -2.5216565486   -4.7665872993   -2.3333728851
H        0.4895747177   -6.7939394287    1.8443847930
H       -4.5624538031   -7.1121621284    0.7138911144
H       -2.3499341051   -2.1337082121   -0.9089164741
H       -0.7172301250   -1.5241453598    0.6605242685
H       -0.8456143725   -5.1648989124    0.4668950933
23   

C       -3.6563485402   -7.2802272005   -1.9655790187
C        1.2351835547   -5.2037428394    2.9405531929
C       -2.7765390183   -4.9948424775   -1.2708717584
C        0.3453151671   -5.7257302446    2.0575272363
C       -4.1366747401   -6.2068521505    0.2120180856
C       -3.5410734222   -6.2092141307   -1.0236480618
C       -2.8224693223   -4.1126633279   -0.2195892088
C        1.3482784645   -3.7710239174    3.0679698324
C       -0.2738635052   -3.4495248583    1.4672708454
C       -2.1545817800   -2.8016113928   -0.0838936948
C       -1.0762537401   -2.5252193828    0.6711194538
N       -3.7443037680   -8.1555489257   -2.7282345040
N        0.5818812711   -2.9288666250    2.2944727467
N       -0.4245118776   -4.8299821051    1.3182370662
O        2.1291131744   -3.3009250973    3.8773636820
S       -3.7926669328   -4.7392758254    1.1192208886
H        1.8694044572   -5.8238944516    3.5578722235
H       -2.2308559036   -4.8110372871   -2.1915286350
H        0.2501157380   -6.8031818474    1.9432058213
H       -4.7561386720   -7.0129902739    0.5896837640
H       -2.5107849361   -2.0083442690   -0.7337844169
H       -0.7621159238   -1.4901845298    0.7309261954
H       -1.0990019476   -5.1372995532    0.6253538593
23   

C       -3.4738655145   -7.3180253898   -1.9333939834
C        1.2578535156   -5.2522960916    2.8516306306
C       -2.6725533988   -5.0250371743   -1.1718906399
C        0.2572684207   -5.7551903143    2.0831575660
C       -4.3635976169   -6.1160689560    0.0388189972
C       -3.5190327654   -6.2021321303   -1.0387824809
C       -2.8957445726   -4.0950196936   -0.1864710050
C        1.4566427736   -3.8246114952    2.9090279706
C       -0.3005433585   -3.4710616249    1.4647927074
C       -2.2448063262   -2.7825088333    0.0095313721
C       -1.1350841041   -2.5282283785    0.7258710696
N       -3.4325091764   -8.2302457815   -2.6556496039
N        0.6558993299   -2.9693373856    2.1869654251
N       -0.5356631033   -4.8453468326    1.3861885669
O        2.3426794893   -3.3699099348    3.6119819809
S       -4.1625488089   -4.6122861603    0.9301996052
H        1.9185658987   -5.8840036394    3.4280878747
H       -1.9473619433   -4.8978468322   -1.9703834335
H        0.0948101060   -6.8290530765    2.0246985670
H       -5.0798412835   -6.8832729556    0.3120547811
H       -2.7354753712   -1.9310912724   -0.4519215627
H       -0.8196541939   -1.4946347441    0.8024999632
H       -1.2957473831   -5.1394415613    0.7819737869
23   

C       -3.7690411703   -7.7289385858   -0.7224834768
C        1.1143134380   -5.0029117823    3.2849028222
C       -2.5894590470   -5.4736829018   -0.6759292652
C       -0.0465623636   -5.4792474509    2.7648549099
C       -4.7486968772   -5.6635218277    0.2260016216
C       -3.7259074367   -6.3376118122   -0.3909516949
C       -2.7725535376   -4.1859538662   -0.2321593216
C        1.6635429457   -3.7695605922    2.7770413798
C       -0.0829992106   -3.5440195995    1.2944836555
C       -1.8844894846   -3.0202834267   -0.3997262297
C       -0.7333249351   -2.7612427496    0.2483604353
N       -3.8025858891   -8.8630996129   -0.9833731536
N        1.0269868491   -3.0711898132    1.7767009174
N       -0.6506647684   -4.7339356119    1.7536531201
O        2.7027050720   -3.3372302363    3.2452792793
S       -4.3702197797   -3.9650634724    0.4871777703
H        1.6492959765   -5.5145723231    4.0722480248
H       -1.6980747451   -5.8119631278   -1.1966884555
H       -0.4751666035   -6.4077103688    3.1353520214
H       -5.6875007183   -6.1205300099    0.5192140137
H       -2.2763851150   -2.2107990748   -1.0078544707
H       -0.2192171891   -1.8419224685   -0.0053186099
H       -1.5215321711   -5.0171538307    1.3170963813
23   

C       -3.6100979064   -7.7493772342   -0.6242513218
C        1.1261848066   -5.0458094646    3.2521079362
C       -2.5249155558   -5.4493830146   -0.5191816932
C       -0.1034466102   -5.4445012655    2.8349269885
C       -4.8156812207   -5.6643313664   -0.0552256552
C       -3.6719961693   -6.3374142953   -0.4005051896
C       -2.8244022789   -4.1413877275   -0.2150606391
C        1.7171453180   -3.8605423480    2.6807120166
C       -0.1226338260   -3.5306562713    1.3368522501
C       -1.9631928950   -2.9534870915   -0.3040592833
C       -0.7985019569   -2.7169289226    0.3317428923
N       -3.5601603775   -8.8998273977   -0.7960406004
N        1.0495558769   -3.1277254549    1.7263051151
N       -0.7327628875   -4.6715045874    1.8604028151
O        2.8219788471   -3.5021236809    3.0506392296
S       -4.5420468744   -3.9376830566    0.1436901333
H        1.6861420381   -5.5849139900    4.0029509665
H       -1.5407264965   -5.7862542210   -0.8331258971
H       -0.5652486721   -6.3346319723    3.2562252348
H       -5.7819120501   -6.1379757426    0.0794467442
H       -2.3879590224   -2.1016370986   -0.8261838785
H       -0.2829588119   -1.7959149657    0.0872190003
H       -1.6566831631   -4.8933333543    1.5047736790
23   

C       -3.4690905891   -7.7642907287   -0.5053450870
C        1.1174669023   -5.0620126673    3.2387339657
C       -2.4823082770   -5.4226054995   -0.3641021240
C       -0.1662731075   -5.3818466331    2.9312384682
C       -4.8126366269   -5.6959225320   -0.3043873968
C       -3.6080721331   -6.3445762826   -0.3931137026
C       -2.8655498282   -4.1085318843   -0.2097524275
C        1.7365522111   -3.9271585548    2.5987472639
C       -0.1784148775   -3.4979909393    1.3956707492
C       -2.0469325253   -2.8938293911   -0.2077348503
C       -0.8758102927   -2.6647782064    0.4223335443
N       -3.3586329826   -8.9205720099   -0.5854904931
N        1.0428662105   -3.1645157654    1.6871265935
N       -0.8203124637   -4.5824911347    1.9949764310
O        2.8911466699   -3.6425597311    2.8666530316
S       -4.6251966222   -3.9513274842   -0.1765829703
H        1.7006387679   -5.6281708699    3.9510353337
H       -1.4503504099   -5.7438337192   -0.4768801389
H       -0.6501111351   -6.2322688813    3.4064951217
H       -5.7742607346   -6.1970713497   -0.3129412043
H       -2.4915358718   -2.0267823093   -0.6865295287
H       -0.3615486955   -1.7421947508    0.1812128551
H       -1.7818860007   -4.7483307945    1.7170307947
23   

C       -3.3728531351   -7.7443973926   -0.4094909064
C        1.1012393926   -5.0894547257    3.2565974113
C       -2.4412403317   -5.3836753447   -0.2239680427
C       -0.2222255807   -5.3151904882    3.0511219229
C       -4.7440547111   -5.6903415676   -0.5597510367
C       -3.5386676242   -6.3231580722   -0.4008365366
C       -2.8520739020   -4.0671543493   -0.2180395087
C        1.7529722784   -4.0115472087    2.5533646706
C       -0.2058940485   -3.4638343247    1.4769010310
C       -2.0786683971   -2.8324699897   -0.1094899704
C       -0.9083155720   -2.6098224394    0.5268110390
N       -3.2426141213   -8.9014344892   -0.4051570294
N        1.0525406092   -3.2130304016    1.6781569407
N       -0.8831596514   -4.4813016583    2.1504768126
O        2.9427280794   -3.8129466767    2.7287666507
S       -4.5930369580   -3.9391182069   -0.4952931830
H        1.6927863294   -5.6902702933    3.9327229197
H       -1.4058536215   -5.7014905054   -0.1398666163
H       -0.7306841343   -6.1209405597    3.5760201681
H       -5.6857722089   -6.2065190873   -0.7098060815
H       -2.5296176080   -1.9566947053   -0.5659312743
H       -0.3896387834   -1.6880646746    0.2924835749
H       -1.8706270794   -4.5829091586    1.9413902545
23   

C       -3.3543516227   -7.7587184441   -0.2963283429
C        1.1292718339   -5.0556530004    3.2261554229
C       -2.4615479542   -5.3848054074   -0.0935134659
C       -0.2152825119   -5.2246100830    3.1329566122
C       -4.6829587518   -5.7269849282   -0.7716620230
C       -3.5183289217   -6.3404103388   -0.3913203266
C       -2.8626177378   -4.0713657039   -0.2335140624
C        1.7686809958   -4.0215041728    2.4495506922
C       -0.2425354689   -3.4160426072    1.5109949817
C       -2.1511503952   -2.8123542944   -0.0390065839
C       -0.9804318030   -2.5647851851    0.5881849028
N       -3.2267445466   -8.9127174554   -0.2078053997
N        1.0362089036   -3.2127478555    1.6108814030
N       -0.9100023096   -4.3802377341    2.2678568514
O        2.9760676722   -3.8730540281    2.5259243975
S       -4.5418765602   -3.9743992999   -0.7790824647
H        1.7469446688   -5.6700607452    3.8657635389
H       -1.4566016805   -5.7009485874    0.1672367445
H       -0.7139327880   -5.9958828355    3.7158878266
H       -5.5896546978   -6.2576807988   -1.0397853404
H       -2.6221520145   -1.9421985699   -0.4858481314
H       -0.4820091020   -1.6332817278    0.3489222490
H       -1.9147724294   -4.4392799286    2.1431010191
23   

C       -4.2448821530   -7.2446525409    1.0157452977
C        1.2487463995   -4.9698481806    3.0828311931
C       -2.8716326808   -5.1600315869    0.5250979608
C        0.7751367012   -5.5942517960    1.9731859689
C       -4.6175475746   -5.7596596309   -0.9263766529
C       -3.9405658080   -6.0984336834    0.2150325944
C       -2.7604361569   -4.1385743421   -0.3980093149
C        1.0684172364   -3.5455669463    3.2259929585
C       -0.0692535713   -3.4418927028    1.2301359350
C       -1.8372076573   -3.0165727477   -0.5262728872
C       -0.7948012423   -2.6493256930    0.2501564303
N       -4.4854042580   -8.1844255803    1.6599120615
N        0.4134375904   -2.8161374428    2.2603654368
N        0.1168679786   -4.8100923098    1.0262625421
O        1.4859536896   -2.9847942611    4.2243934212
S       -3.9840825742   -4.2964814567   -1.6658221932
H        1.7624556993   -5.5012047340    3.8714630801
H       -2.2790577452   -5.2605806773    1.4265051020
H        0.9100851946   -6.6662282015    1.8467991553
H       -5.4502547525   -6.3248435135   -1.3296439288
H       -2.0794506042   -2.3135497222   -1.3173040021
H       -0.4958390126   -1.6090449027    0.2109937439
H       -0.2548820506   -5.1967835396    0.1659020392
23   

C       -4.3508937727   -7.2024798848    1.0179397234
C        1.2241888087   -5.1148934782    3.1223799748
C       -2.9887915372   -5.0920913774    0.6121712844
C        0.6223807188   -5.7018568813    2.0554299892
C       -4.4565296214   -5.8549645602   -1.0538103980
C       -3.9606840594   -6.0945285537    0.2008164691
C       -2.7571932226   -4.1329223614   -0.3532039301
C        1.1555152355   -3.6818738625    3.2744579286
C       -0.1158490250   -3.4921537959    1.3665307713
C       -1.8789630934   -2.9677805115   -0.3733213505
C       -0.8476421005   -2.6432061208    0.4367715884
N       -4.6606669456   -8.1115517794    1.6763178656
N        0.4818827020   -2.9057323889    2.3591705221
N       -0.0481417999   -4.8706849064    1.1589990327
O        1.6883504199   -3.1537990175    4.2351243781
S       -3.7626928404   -4.4121604638   -1.7807559442
H        1.7591608738   -5.6829984320    3.8701617017
H       -2.5399425023   -5.0971999563    1.6002794523
H        0.6694104340   -6.7805129178    1.9227314468
H       -5.1936992931   -6.4799951083   -1.5452809429
H       -2.1010966673   -2.2359974780   -1.1439260481
H       -0.5387550188   -1.6050050155    0.4470815614
H       -0.5199965753   -5.2292741026    0.3359664571
23   

C       -4.4467522759   -7.1415618115    1.0147638101
C        1.2270413138   -5.1643573490    3.1088652268
C       -3.0935323135   -5.0179580772    0.6481615753
C        0.5156821620   -5.7337323081    2.1016365443
C       -4.2803865169   -5.9522967460   -1.1485531127
C       -3.9681803053   -6.0827469816    0.1796772979
C       -2.7394096104   -4.1317516525   -0.3474070289
C        1.2416617527   -3.7278627520    3.2409746437
C       -0.1509309903   -3.4972928230    1.4234340358
C       -1.9239268504   -2.9207490960   -0.2930981808
C       -0.8934295161   -2.6200102662    0.5264911410
N       -4.8281198502   -8.0108512547    1.6890114745
N        0.5440187170   -2.9301346076    2.3628175605
N       -0.1772278230   -4.8809969607    1.2436882718
O        1.8716109240   -3.2149047865    4.1496907378
S       -3.5233728212   -4.5418928883   -1.8775584318
H        1.7889972030   -5.7492244569    3.8231403781
H       -2.7867462503   -4.9259788123    1.6862023570
H        0.4968402824   -6.8150403599    1.9845867353
H       -4.9217341006   -6.6374285726   -1.6917435940
H       -2.1463371664   -2.1731014007   -1.0482351392
H       -0.5770557980   -1.5843959042    0.5578311685
H       -0.7314669388   -5.2258397244    0.4671345929
23   

C       -4.5877666467   -7.1110676456    0.9448007119
C        1.2397415320   -5.1806326872    3.1199410898
C       -3.2334060344   -4.9750175438    0.6618855109
C        0.4090979672   -5.7423692388    2.2037894683
C       -4.0908308617   -6.0550530125   -1.2373079131
C       -3.9982965090   -6.0931570988    0.1300091697
C       -2.7324729784   -4.1487683126   -0.3200279454
C        1.3377266867   -3.7436560229    3.1988872796
C       -0.1947153735   -3.4960643914    1.4991774100
C       -1.9857242357   -2.8952032933   -0.1915814842
C       -0.9538577988   -2.6053614509    0.6283814100
N       -5.0591366023   -7.9466128707    1.6045619474
N        0.6055813289   -2.9380435609    2.3569793924
N       -0.3162163080   -4.8812623914    1.3817446689
O        2.0765775190   -3.2365520832    4.0252079787
S       -3.2514963377   -4.6709139610   -1.9263349032
H        1.8372749928   -5.7718024899    3.7992574000
H       -3.0965414443   -4.8037789672    1.7262110114
H        0.3250798081   -6.8242090405    2.1279683583
H       -4.6212407804   -6.7915217784   -1.8307921996
H       -2.2199217877   -2.1316384668   -0.9269795432
H       -0.6320970623   -1.5714862399    0.6649940738
H       -0.9507475098   -5.2201370823    0.6662620065
23   

C       -4.7121400165   -7.1311551686    0.8408604720
C        1.2473456782   -5.1021306171    3.1057850739
C       -3.4030798713   -4.9573501548    0.6419725328
C        0.3211518746   -5.6745945525    2.2937281948
C       -3.8579803685   -6.2088416052   -1.2909063482
C       -4.0176791533   -6.1460906860    0.0695607436
C       -2.7580089119   -4.1824417872   -0.2941928628
C        1.3925573591   -3.6670463342    3.1117173244
C       -0.2731363835   -3.4420733591    1.5386862174
C       -2.1036579184   -2.8780463272   -0.1179319999
C       -1.0712571609   -2.5638417472    0.6896178942
N       -5.2690162496   -7.9390644312    1.4675271129
N        0.6110882531   -2.8742767797    2.3027597023
N       -0.4495329926   -4.8260261162    1.5004861665
O        2.2209268607   -3.1501835878    3.8415283727
S       -2.9548391969   -4.8374491745   -1.9228901936
H        1.8875704593   -5.6832228514    3.7541634659
H       -3.4653990313   -4.7035752071    1.6966707350
H        0.1992282388   -6.7552712399    2.2747533477
H       -4.2441742164   -7.0100383545   -1.9114028675
H       -2.3844222405   -2.1098827136   -0.8319236624
H       -0.7674131901   -1.5242534079    0.7175312154
H       -1.1530724908   -5.1742667612    0.8577806698
23   

C       -4.8340692398   -7.1201253484    0.7025799301
C        1.2946017294   -5.0690006983    3.0656016839
C       -3.5629973988   -4.9164579333    0.6134062142
C        0.2752917602   -5.6299271020    2.3646296626
C       -3.5832523088   -6.3121730026   -1.2742795237
C       -4.0195171199   -6.1636951543    0.0175182025
C       -2.7661642862   -4.1809535933   -0.2308747392
C        1.4955247615   -3.6419935456    3.0024259428
C       -0.2972215670   -3.4022799399    1.5783892000
C       -2.1811597213   -2.8446548457   -0.0123259082
C       -1.1349829466   -2.5214048686    0.7707805541
N       -5.4894352600   -7.9036706658    1.2612049141
N        0.6707540399   -2.8449376078    2.2421425841
N       -0.5303991720   -4.7783489444    1.6105353427
O        2.4127514051   -3.1365349605    3.6263033552
S       -2.6029058605   -4.9530170665   -1.8107685268
H        1.9691578364   -5.6535139889    3.6748906799
H       -3.8368176983   -4.5980561057    1.6153199816
H        0.1086971053   -6.7041517147    2.4006573352
H       -3.8157908297   -7.1673643259   -1.8993843440
H       -2.5420134948   -2.0574288792   -0.6670981425
H       -0.8418219869   -1.4787616910    0.7984154056
H       -1.3077795449   -5.1181149378    1.0542599288
23   

C       -4.9133879452   -7.1271885011    0.5582716599
C        1.3648174554   -5.0696058569    2.9830170626
C       -3.7145291590   -4.8816015735    0.5658232904
C        0.2592079703   -5.6078243094    2.4063295928
C       -3.2601991247   -6.4254447615   -1.1447809885
C       -3.9882353398   -6.1924708301   -0.0056268081
C       -2.7823596848   -4.1728936296   -0.1513889512
C        1.6190205632   -3.6564710651    2.8432034440
C       -0.2957892462   -3.3841764339    1.5950684898
C       -2.2549737479   -2.8167435636    0.1081130942
C       -1.1828331683   -2.4930368062    0.8531899286
N       -5.6596452683   -7.8920393334    1.0204533332
N        0.7514693328   -2.8473039799    2.1455735072
N       -0.5773797626   -4.7481677920    1.6968077752
O        2.6195868991   -3.1741994898    3.3454380380
S       -2.2179312800   -5.0709334755   -1.5635236924
H        2.0696206820   -5.6623020306    3.5485822727
H       -4.2020781585   -4.5063493680    1.4608966596
H        0.0492861828   -6.6705188956    2.5043422200
H       -3.3201693170   -7.3378433195   -1.7280453605
H       -2.7745488598   -1.9994656672   -0.3825052041
H       -0.9073757883   -1.4462582398    0.8985836420
H       -1.4284060057   -5.0682020610    1.2466663912
23   

C       -5.0017672121   -7.1172913895    0.3896165388
C        1.4449222718   -5.0397425165    2.9248408882
C       -3.8395716203   -4.8549817108    0.4941284008
C        0.2677411218   -5.5595212355    2.4910808740
C       -3.0275596577   -6.5024426107   -0.9702544264
C       -3.9814023310   -6.2060719349   -0.0300570427
C       -2.7893796781   -4.1723635583   -0.0686024057
C        1.7360986202   -3.6476420694    2.6819866285
C       -0.2827529977   -3.3588705628    1.6153005444
C       -2.3132658330   -2.8046981986    0.2249111366
C       -1.2142037863   -2.4712279298    0.9249885105
N       -5.8268739056   -7.8620762509    0.7361159839
N        0.8305068149   -2.8373833233    2.0352464762
N       -0.6020398796   -4.7031655719    1.8190038950
O        2.8024548867   -3.1852722792    3.0492920878
S       -1.9249893980   -5.1608984427   -1.2526413462
H        2.1801792514   -5.6320138870    3.4506918031
H       -4.4983020068   -4.4362648967    1.2490556859
H        0.0280085028   -6.6052274484    2.6701360876
H       -2.9599846005   -7.4524928247   -1.4889682855
H       -2.9686059500   -1.9911328980   -0.0703047393
H       -0.9548695885   -1.4205773428    0.9743492064
H       -1.5081897582   -5.0074856777    1.4787846048
23   

C       -5.8319114000   -6.1553426997    0.5144533659
C        1.0112462386   -5.0280940353    3.3335782434
C       -4.0805507456   -4.3326850754    0.2144114976
C       -0.2986716817   -5.2629859087    3.0636781510
C       -3.5372043812   -6.5545683106   -0.3210754741
C       -4.5206882988   -5.7190036784    0.1431199423
C       -2.7808332314   -4.1613058387   -0.1969907950
C        1.7060324224   -3.9861017531    2.6167700186
C       -0.1907000842   -3.4758840337    1.4185162700
C       -1.9946726664   -2.9152065596   -0.2496634384
C       -0.8463385153   -2.6578933702    0.4031810305
N       -6.8963283931   -6.5119202567    0.8235794758
N        1.0557699400   -3.2180969327    1.6772520761
N       -0.9026219835   -4.4746322627    2.0864325693
O        2.8888470963   -3.7925708820    2.8385439266
S       -2.0457003541   -5.6961500387   -0.6848420271
H        1.5605175041   -5.5954504992    4.0713676144
H       -4.7188439254   -3.5234100989    0.5554972916
H       -0.8407617575   -6.0398912614    3.5981119781
H       -3.6611853883   -7.6233838865   -0.4564177480
H       -2.4502628455   -2.0781441328   -0.7694641985
H       -0.3110105965   -1.7549043290    0.1359080968
H       -1.8785488457   -4.5801111260    1.8300567007
23   

C       -5.8985013348   -6.1698534229    0.2051812726
C        1.1444136614   -4.9595737990    3.2992759478
C       -4.1349359169   -4.3387818612    0.0778744917
C       -0.1954086071   -5.1347404854    3.1638085588
C       -3.4977023008   -6.5784268313   -0.2314637859
C       -4.5480098616   -5.7340873087    0.0211281707
C       -2.7846445017   -4.1673659525   -0.1217583624
C        1.8170340990   -3.9796736185    2.4807851959
C       -0.1566775954   -3.4213496773    1.4402023264
C       -2.0392274859   -2.9018557203   -0.1500222404
C       -0.8660428283   -2.6210437912    0.4493075904
N       -6.9962050547   -6.5253699146    0.3616830923
N        1.1183925283   -3.2145548864    1.5742964439
N       -0.8516239392   -4.3505818210    2.2171574809
O        3.0237445863   -3.8411820081    2.5821635961
S       -1.9740751340   -5.7175260068   -0.4046180522
H        1.7340812450   -5.5299949175    4.0027471771
H       -4.8285264544   -3.5227222193    0.2546322806
H       -0.7203507490   -5.8638260628    3.7769259464
H       -3.5907356304   -7.6551112968   -0.3206342236
H       -2.5386872117   -2.0653185515   -0.6286968485
H       -0.3504138978   -1.7192434430    0.1424867972
H       -1.8504591290   -4.4176441764    2.0542653051
23   

C       -5.9373121063   -6.2163610827   -0.1084944256
C        1.2584316401   -4.7509309386    3.2512848759
C       -4.2153092511   -4.3427267752   -0.0492620077
C       -0.0925996104   -4.8875988936    3.2743629100
C       -3.4897816882   -6.5753017842   -0.1099919794
C       -4.5843562692   -5.7508124020   -0.0890015854
C       -2.8534702361   -4.1378474805   -0.0185599096
C        1.8616776289   -3.8295285971    2.3187128235
C       -0.1992782877   -3.2604038901    1.4732089734
C       -2.1759453275   -2.8410428053   -0.0274044152
C       -0.9928834490   -2.4976805937    0.5197457641
N       -7.0382063059   -6.5957354417   -0.1181543641
N        1.0870001196   -3.0833735644    1.4596682426
N       -0.8297241233   -4.1257226534    2.3696158585
O        3.0756399595   -3.7294996666    2.2759851047
S       -1.9778941879   -5.6785666251   -0.0768250447
H        1.9077923042   -5.3100553142    3.9098510100
H       -4.9471855555   -3.5413036672   -0.0514133196
H       -0.5645615825   -5.5716227486    3.9760451269
H       -3.5439078531   -7.6575865055   -0.1470367914
H       -2.7250799907   -2.0303414341   -0.4959770422
H       -0.5276611129   -1.5836866227    0.1715223967
H       -1.8415458881   -4.1684027701    2.3215705572
23   

C       -5.9378699459   -6.2302812160   -0.4658948641
C        1.3288503364   -4.7571155826    3.2673386059
C       -4.2299689834   -4.3649982741   -0.1762789131
C       -0.0187757765   -4.8022885442    3.4308290351
C       -3.5410056016   -6.6001401566    0.0179726738
C       -4.6065516777   -5.7709977862   -0.2123854863
C       -2.8970837661   -4.1595119234    0.1108217185
C        1.8898964840   -3.9205789031    2.2339820359
C       -0.2073410791   -3.2601600133    1.5639014104
C       -2.2385632864   -2.8584407586    0.1328959242
C       -1.0451988291   -2.5009424778    0.6484871620
N       -7.0221950576   -6.6044780047   -0.6667156984
N        1.0792342271   -3.1645468135    1.4182072150
N       -0.7965676807   -4.0361540958    2.5640433128
O        3.0967723879   -3.9061001314    2.0644990890
S       -2.0515725143   -5.7083811800    0.2917868909
H        2.0064011686   -5.3282448412    3.8860271165
H       -4.9365369202   -3.5638770797   -0.3677275568
H       -0.4573837674   -5.4207341784    4.2106294854
H       -3.6026976512   -7.6825179709    0.0279636529
H       -2.7907702696   -2.0557461939   -0.3456895566
H       -0.5950017814   -1.5899630858    0.2738887193
H       -1.8081871890   -4.0116320655    2.6209120157
23   

C       -5.0623138715   -6.7114652629   -1.8956720029
C        1.4377593880   -4.7753461322    3.2105966967
C       -3.3874579789   -4.8600859352   -1.3969714360
C        1.2249977624   -5.3937199438    2.0200437121
C       -3.6324456861   -6.6324281425    0.1196060266
C       -4.0610486517   -6.1085757070   -1.0700641088
C       -2.4381355974   -4.4809708586   -0.4702372340
C        0.9393987218   -3.4363934888    3.4128727820
C        0.0190148179   -3.4103768770    1.3065510402
C       -1.7053181007   -3.2237986619   -0.5244066598
C       -0.7606210701   -2.7164126152    0.2939963317
N       -5.8740180599   -7.2053747973   -2.5690062505
N        0.2519649054   -2.7802332797    2.4175633403
N        0.5092028122   -4.6922986007    1.0507160679
O        1.1081300472   -2.8905127344    4.4894591769
S       -2.3979041282   -5.6367533136    0.8750499269
H        1.9719801789   -5.2490775551    4.0219224972
H       -3.6275852679   -4.2831107287   -2.2841148571
H        1.6025641415   -6.3991321569    1.8482362507
H       -4.0101577119   -7.5521944684    0.5516893366
H       -2.0218459874   -2.5516752949   -1.3158348204
H       -0.6317670059   -1.6411214860    0.2893606256
H        0.3196417480   -5.0768184110    0.1325935946
