35

C      3.37731    1.04836   -3.90279
C      4.56772    1.58530   -4.42619
C      3.59878    2.45327   -1.94986
C      2.88036    1.47516   -2.66814
C      5.27653    2.55757   -3.72182
C      4.78352    2.99070   -2.45183
C      8.31036    3.48713   -5.54292
C      0.32108    3.21327   -1.98874
C      5.15183    4.35060   -0.52187
C      1.56487    0.94302   -2.14395
C      7.02538    2.70166   -5.36054
C      0.35479    1.80497   -2.57063
N      0.40478    1.92399   -4.09872
O      5.54311    3.91511   -1.82551
O      6.42685    3.13375   -4.12220
H      2.89565    0.23091   -4.43827
H      4.94201    1.21678   -5.37370
H      3.23605    2.76973   -0.97822
H      8.10547    4.55995   -5.58977
H      8.99838    3.29913   -4.71462
H      8.79711    3.18467   -6.47499
H      1.21205    3.78408   -2.26300
H     -0.57070    3.76108   -2.31098
H      0.28630    3.14585   -0.89874
H      5.91350    5.06435   -0.21025
H      5.12579    3.51148    0.18266
H      4.17510    4.84884   -0.54760
H      1.55484    0.90637   -1.05072
H      1.40646   -0.08523   -2.48930
H      7.22273    1.62371   -5.30709
H      6.32494    2.88968   -6.18450
H     -0.57802    1.28015   -2.34950
H      0.16216    1.03937   -4.55896
H      1.38404    2.14636   -4.36945
H     -0.22332    2.65295   -4.45518
