22   

C        1.8248822524   -0.2121630085    0.1148672229
C        0.5379467781   -0.4647970719    0.5829367409
C        2.9238844391   -0.4465833918    0.9438804333
C        0.3549002307   -0.9564669000    1.8761662841
C        2.7602446371   -0.9282505904    2.2537354472
C        1.4486034170   -1.1953807991    2.7263987423
C        3.9531985060   -1.1290921218    3.0993932345
C        5.2694877430   -0.8026800157    2.8750549637
C        1.1965884507   -1.7555985817    4.1062527275
C        6.3746217888   -1.6108833429    2.2243155503
H        1.9733973317    0.1683591843   -0.8891546407
H       -0.3191155227   -0.2827030042   -0.0554245512
H        3.9191010986   -0.2409323000    0.5679818028
H       -0.6528904444   -1.1552605388    2.2218548300
H        3.7263863190   -1.2973028871    4.1443395357
H        5.7071043218   -0.3760235511    3.7714148381
H        1.7808551468   -2.6690644206    4.2547514971
H        1.4749572349   -1.0210737853    4.8678658520
H        0.1401408749   -2.0062628308    4.2406406621
H        7.1789232323   -1.8079222805    2.9396520962
H        5.9808441151   -2.5673989334    1.8673972919
H        6.7859221349   -1.0617590267    1.3724146941
22   

C        1.9195364152   -0.2860621300    0.1157456363
C        0.6179735202   -0.5043750106    0.5594838768
C        2.9930238228   -0.4848857667    0.9864205966
C        0.3947325984   -0.9256871113    1.8709102030
C        2.7888643338   -0.8920198415    2.3165916628
C        1.4619660071   -1.1244706281    2.7639499799
C        3.9509288606   -1.0579426601    3.2115149556
C        5.2683485942   -0.7942056483    2.9670551580
C        1.1680490614   -1.6253061512    4.1582513588
C        6.2419611261   -1.5944965357    2.1295795955
H        2.0992180963    0.0409085912   -0.9019492110
H       -0.2191692758   -0.3514740618   -0.1121080724
H        3.9982501620   -0.3032984161    0.6259940930
H       -0.6236210974   -1.1034872297    2.1964818012
H        3.7000216002   -1.1350342424    4.2618596763
H        5.7846555311   -0.4504856146    3.8570374603
H        1.7621824885   -2.5198165842    4.3702764158
H        1.4043484724   -0.8518881622    4.8949380057
H        0.1123109246   -1.8922767635    4.2639703153
H        7.0958074356   -1.9114232354    2.7360236105
H        5.7496911813   -2.4842272252    1.7249221531
H        6.6064349723   -0.9858377145    1.2969801206
22   

C        1.9927574637   -0.3619870622    0.1189170006
C        0.6818459521   -0.5518846099    0.5465566193
C        3.0474262604   -0.5123019472    1.0216428321
C        0.4303500272   -0.8946734094    1.8752153573
C        2.8154364435   -0.8377613234    2.3709119676
C        1.4779266170   -1.0394649142    2.8012740848
C        3.9496860461   -0.9540397934    3.3096488035
C        5.2718480682   -0.8033437466    3.0405424708
C        1.1545111440   -1.4750340347    4.2108519701
C        6.1010109956   -1.6096942927    2.0681300118
H        2.1944470738   -0.0928990811   -0.9115161293
H       -0.1403983877   -0.4385392841   -0.1507933850
H        4.0566523477   -0.3452636085    0.6677499992
H       -0.5946642861   -1.0564654299    2.1879195016
H        3.6901017788   -0.9442141334    4.3609112806
H        5.8580975083   -0.5220467768    3.9087321504
H        1.7631401169   -2.3424076715    4.4858494757
H        1.3495365048   -0.6595949915    4.9132032840
H        0.1034597020   -1.7660440326    4.2986700580
H        6.9727851107   -2.0336910405    2.5754744273
H        5.5075472748   -2.4288552228    1.6500894931
H        6.4464557157   -0.9707044714    1.2502298264
22   

C        2.0315766361   -0.4120822313    0.1272151918
C        0.7161741985   -0.5864573477    0.5452128460
C        3.0750979282   -0.5219673500    1.0483320650
C        0.4489127607   -0.8701735335    1.8840609749
C        2.8291929341   -0.7905430184    2.4091641409
C        1.4847427889   -0.9707842558    2.8290860387
C        3.9408906428   -0.8659347598    3.3788418925
C        5.2662531168   -0.8478981216    3.1106868506
C        1.1427162498   -1.3566996290    4.2488106067
C        5.9805488523   -1.6240643588    2.0322286914
H        2.2457113849   -0.1835769620   -0.9104847557
H       -0.0970778748   -0.5059577386   -0.1670884303
H        4.0826759414   -0.3536774830    0.6938701743
H       -0.5795567069   -1.0227653580    2.1898779761
H        3.6779580877   -0.7956317207    4.4271099452
H        5.8950189044   -0.6396129396    3.9695850947
H        1.7610767878   -2.2016183193    4.5686892620
H        1.3092487671   -0.5113096017    4.9222523104
H        0.0960984905   -1.6656930670    4.3280979860
H        6.8488615183   -2.1387269625    2.4544539285
H        5.3151935937   -2.3739320724    1.5928314423
H        6.3262357198   -0.9467490431    1.2458321164
22   

C        2.0514324330   -0.4427846051    0.1339136019
C        0.7360754787   -0.6096514138    0.5525207731
C        3.0926157559   -0.5191937616    1.0608105193
C        0.4664271694   -0.8487266479    1.8989446147
C        2.8468140678   -0.7478440385    2.4304152912
C        1.4996296999   -0.9132299865    2.8501310071
C        3.9458931223   -0.7887228665    3.4177773021
C        5.2640742623   -0.9128678013    3.1642209043
C        1.1524245563   -1.2620781940    4.2783192622
C        5.8994606687   -1.6321136966    2.0022226780
H        2.2676386526   -0.2429318788   -0.9092666173
H       -0.0750612962   -0.5562968739   -0.1647266947
H        4.0944201066   -0.3417515369    0.6978236582
H       -0.5622972974   -0.9966462576    2.2060926879
H        3.6851878486   -0.6743528919    4.4628073868
H        5.9149912165   -0.7797526909    4.0215129661
H        1.7807388748   -2.0877785894    4.6278302052
H        1.2999117860   -0.3948453625    4.9278043794
H        0.1105512412   -1.5866133771    4.3583426722
H        6.7629866846   -2.2065790565    2.3506489413
H        5.1927864289   -2.3294663401    1.5416117000
H        6.2455604397   -0.9134032509    1.2536430664
22   

C        2.0589594420   -0.4694995362    0.1371611524
C        0.7442418185   -0.6217954708    0.5611635510
C        3.1013183582   -0.5247601666    1.0640653051
C        0.4763835248   -0.8223344802    1.9136972210
C        2.8595696995   -0.7188581567    2.4407434345
C        1.5106922903   -0.8639085653    2.8651036751
C        3.9528406501   -0.7386497734    3.4356488000
C        5.2544893322   -0.9988925713    3.2117394484
C        1.1619828008   -1.1791381635    4.3009015834
C        5.8636128270   -1.6272916029    1.9867068803
H        2.2740609193   -0.2952123682   -0.9108298828
H       -0.0676164728   -0.5858081753   -0.1563493412
H        4.0981900015   -0.3479563443    0.6898060837
H       -0.5523064164   -0.9596523408    2.2257565716
H        3.6935158254   -0.5970904447    4.4776947127
H        5.9035379060   -0.9427682241    4.0788851795
H        1.7912360169   -1.9951095090    4.6711050736
H        1.3058371605   -0.2964106092    4.9298648302
H        0.1210706294   -1.5053187514    4.3867190157
H        6.7333855838   -2.2248277306    2.2757069306
H        5.1512942828   -2.2945874338    1.4919167835
H        6.2004029444   -0.8553045041    1.2886253258
22   

C        2.0533031056   -0.4959504738    0.1369298060
C        0.7393783595   -0.6229822676    0.5700838864
C        3.0995656089   -0.5402027968    1.0599489518
C        0.4762479313   -0.7858222390    1.9281896343
C        2.8641086041   -0.6975869135    2.4429809536
C        1.5145010444   -0.8147457819    2.8758458075
C        3.9580651193   -0.7077045078    3.4381311429
C        5.2327158947   -1.0947516037    3.2469790540
C        1.1671124087   -1.0964441546    4.3190811401
C        5.8574555298   -1.6106930191    1.9790487789
H        2.2651160967   -0.3489176721   -0.9158991053
H       -0.0753740291   -0.5964797944   -0.1445553682
H        4.0930358307   -0.3780263239    0.6721718774
H       -0.5523289557   -0.9051194911    2.2478620245
H        3.6995691017   -0.5504389469    4.4780610827
H        5.8641609884   -1.1146832112    4.1286069215
H        1.7897094566   -1.9105350518    4.7045070313
H        1.3203206187   -0.2022422720    4.9292277511
H        0.1238486255   -1.4123175132    4.4144092164
H        6.7474819966   -2.1980095838    2.2239322271
H        5.1674911685   -2.2669815990    1.4401083202
H        6.1692351274   -0.7794758466    1.3398339220
22   

C        2.0640229173   -0.4110295367    0.1476640114
C        0.7498667511   -0.4545108236    0.5977274314
C        3.0964908557   -0.8751091498    0.9645829184
C        0.4724335133   -0.9690825658    1.8624641005
C        2.8446591691   -1.4084809087    2.2465575105
C        1.4961283224   -1.4572287700    2.6934028380
C        3.9260596001   -1.9396228117    3.1032682177
C        5.2378426250   -1.6446831955    3.0370857067
C        1.1405658021   -1.9135796460    4.0890394493
C        5.8809450618   -0.4963587654    2.3060412440
H        2.2859364686   -0.0287829812   -0.8420692273
H       -0.0541153948   -0.0892759697   -0.0311205829
H        4.0916108929   -0.8675885985    0.5465355854
H       -0.5550024445   -0.9774107373    2.2070592435
H        3.6500201438   -2.5881452961    3.9256859171
H        5.8745130785   -2.1602717670    3.7478419378
H        1.2486529434   -2.9983185275    4.1736244563
H        1.7910920144   -1.4256786504    4.8222436688
H        0.1096513863   -1.6432573339    4.3368250990
H        6.2014082750   -0.8101171833    1.3082596515
H        5.1959655269    0.3535925804    2.2293282420
H        6.7656892572   -0.1617507457    2.8558961873
22   

C        2.0566639722   -0.4295385799    0.1344491258
C        0.7415582188   -0.4568921645    0.5849935216
C        3.0866632152   -0.8776439556    0.9635098256
C        0.4608299342   -0.9365574015    1.8632107182
C        2.8291081864   -1.3790193285    2.2561006250
C        1.4821354284   -1.4070791373    2.7069944615
C        3.9150337739   -1.8907034038    3.1183492119
C        5.2400121978   -1.6998802725    2.9590494615
C        1.1262347273   -1.8322572682    4.1121722352
C        5.9150569331   -0.5078940355    2.3307756808
H        2.2809877226   -0.0706562160   -0.8634454746
H       -0.0607385080   -0.1050249683   -0.0535543007
H        4.0872954184   -0.8771347700    0.5565835378
H       -0.5668616682   -0.9326202000    2.2072003680
H        3.6361148063   -2.5178455909    3.9562214935
H        5.8739871974   -2.2782181267    3.6223473819
H        1.2370155281   -2.9146340928    4.2211025803
H        1.7754953584   -1.3268731157    4.8345044738
H        0.0941678988   -1.5597288457    4.3525749164
H        6.2481239696   -0.7501390246    1.3173228685
H        5.2381320573    0.3515153263    2.2985164798
H        6.7918216674   -0.2258296437    2.9213797411
22   

C        2.0352317036   -0.4547017877    0.1101577525
C        0.7212588150   -0.4759643810    0.5666959009
C        3.0708564430   -0.8685494176    0.9502065387
C        0.4475123245   -0.9115555583    1.8627484100
C        2.8177360668   -1.3290617652    2.2572417952
C        1.4748762782   -1.3453285957    2.7186154609
C        3.9198344465   -1.7996901563    3.1208236859
C        5.2469771090   -1.7224261708    2.8729396210
C        1.1286492992   -1.7325667490    4.1369606958
C        5.9987333743   -0.5274471151    2.3412925180
H        2.2541149378   -0.1246987514   -0.8988412172
H       -0.0857427503   -0.1519170155   -0.0805867668
H        4.0766126728   -0.8644123755    0.5532124086
H       -0.5790875795   -0.9035298855    2.2100053565
H        3.6424205319   -2.3893296777    3.9858694215
H        5.8584527030   -2.3632259394    3.4989659732
H        1.2605962187   -2.8088068094    4.2792394703
H        1.7695560775   -1.1929750887    4.8416980167
H        0.0914239112   -1.4738743297    4.3702283999
H        6.3314415975   -0.7162832620    1.3164404106
H        5.3633148076    0.3637092081    2.3536736350
H        6.8782995210   -0.3323237675    2.9621060121
22   

C        1.9952039965   -0.4814935734    0.0805859584
C        0.6846638024   -0.4949757309    0.5493595838
C        3.0403524364   -0.8578183806    0.9266902223
C        0.4241193971   -0.8818730302    1.8640910167
C        2.7983672414   -1.2711830044    2.2498843775
C        1.4616340750   -1.2749682801    2.7272137505
C        3.9214517437   -1.6985684586    3.1090830210
C        5.2419759419   -1.7308743493    2.7963906330
C        1.1311902580   -1.6211633494    4.1597491486
C        6.1077973731   -0.5631689280    2.3833631955
H        2.2037865597   -0.1844924646   -0.9407662249
H       -0.1301207614   -0.2015499138   -0.1027561851
H        4.0490052223   -0.8525860473    0.5338979293
H       -0.5998069097   -0.8695397778    2.2191088130
H        3.6461390200   -2.2442390458    4.0030080343
H        5.8073868926   -2.4416694854    3.3893875586
H        1.2881713693   -2.6889449012    4.3370930371
H        1.7639934905   -1.0444895140    4.8419611590
H        0.0891943170   -1.3795582457    4.3899261566
H        6.4485026414   -0.6952871439    1.3523211323
H        5.5434019949    0.3721050042    2.4518694941
H        6.9827145647   -0.4915611185    3.0364598924
22   

C        1.9200650885   -0.5440210355    0.0378610355
C        0.6193373830   -0.5406297856    0.5345742837
C        2.9856705785   -0.8611202611    0.8827936325
C        0.3892260040   -0.8493834950    1.8758049484
C        2.7739010709   -1.1922928157    2.2327078900
C        1.4482363285   -1.1778010960    2.7399013196
C        3.9266234170   -1.5531267161    3.0810851179
C        5.2385905003   -1.6996196582    2.7315325726
C        1.1486730173   -1.4590102340    4.1933423910
C        6.2506737079   -0.6176219663    2.4240520013
H        2.1050752303   -0.3046570915   -1.0029920565
H       -0.2117097354   -0.2953497771   -0.1169012911
H        3.9901204681   -0.8656851613    0.4773050873
H       -0.6279272791   -0.8296558236    2.2495216742
H        3.6619240033   -2.0203392252    4.0211724662
H        5.7294423603   -2.4713617914    3.3148550437
H        1.3489493608   -2.5094936927    4.4237756678
H        1.7673984457   -0.8239950582    4.8352367293
H        0.1003763297   -1.2481774151    4.4249801678
H        6.6080660090   -0.7220218145    1.3955079964
H        5.7940188676    0.3703404759    2.5384874648
H        7.1048310567   -0.6900082269    3.1040882262
22   

C        1.8227532481   -0.6027114735   -0.0001908816
C        0.5374358495   -0.5835102952    0.5352594323
C        2.9157759534   -0.8693532250    0.8269883963
C        0.3502302943   -0.8251829760    1.8969630409
C        2.7473863716   -1.1288996072    2.1976765631
C        1.4377712750   -1.0987955957    2.7446371119
C        3.9329503842   -1.4362005917    3.0214303385
C        5.2415866369   -1.6451174488    2.6562640925
C        1.1825057581   -1.3240810946    4.2161796690
C        6.3814341860   -0.6558966561    2.5141390567
H        1.9745311312   -0.4142911185   -1.0567773582
H       -0.3150638618   -0.3791528029   -0.1024720293
H        3.9096259342   -0.8858022191    0.3956652277
H       -0.6559375841   -0.7985059115    2.2989281125
H        3.6956206745   -1.8247918862    4.0034311916
H        5.6518289707   -2.4888451936    3.2010844342
H        1.4254774114   -2.3558603480    4.4872225582
H        1.7932904673   -0.6402162858    4.8137684657
H        0.1326595026   -1.1418249435    4.4643328779
H        6.7883421159   -0.6992389452    1.4997492507
H        6.0234157716    0.3603901104    2.7048128021
H        7.1804301931   -0.8853498226    3.2257477523
