30

C      0.83953   -0.18247   -0.17725
C      1.16684    2.30968   -0.18044
C     -0.74784   -0.48680    1.65531
C      1.22204    1.05050    0.67235
C     -0.53616   -0.73840    0.16039
C     -1.43711   -0.27445   -2.21427
C      4.35992    3.68082   -1.77233
C     -1.63026   -0.07005   -0.71023
C      2.93567    4.22801   -1.91504
C      2.21861    4.41071   -0.58189
O      1.60285   -0.63636   -1.00413
O      0.34081    2.51631   -1.04874
O      2.14762    3.16218    0.16766
S      0.01713    1.15268    2.05795
H     -1.80562   -0.43079    1.92160
H     -0.27153   -1.26117    2.26228
H      2.23646    0.91321    1.05110
H     -0.51778   -1.81138   -0.05609
H     -0.52956    0.21944   -2.56926
H     -2.28439    0.14941   -2.76282
H     -1.36628   -1.33786   -2.46897
H      4.97954    4.34052   -1.15378
H      4.35775    2.69052   -1.30734
H      4.84046    3.58947   -2.75139
H     -2.58760   -0.50314   -0.39511
H     -1.66829    0.99870   -0.48381
H      2.33549    3.57387   -2.55466
H      2.95619    5.21105   -2.40295
H      2.77237    5.07993    0.08065
H      1.20450    4.79014   -0.72368
