30

C      0.38135   -0.51831   -1.58681
C      0.72930    1.93759   -1.29021
C     -0.22237   -0.34860    0.81524
C      1.34719    0.56773   -1.07491
C     -0.49080   -1.11821   -0.48261
C     -2.85631   -1.89326    0.10767
C      1.95954    6.57701   -2.19267
C     -1.96882   -1.16016   -0.90316
C      2.37532    5.11163   -2.01754
C      1.17671    4.22759   -1.71719
O      0.35649   -0.86309   -2.74982
O     -0.46585    2.16040   -1.19497
O      1.66080    2.86395   -1.56623
S      1.52140    0.24753    0.72432
H     -0.89136    0.50959    0.91171
H     -0.30998   -0.97386    1.70525
H      2.31535    0.49124   -1.56966
H     -0.12495   -2.14722   -0.36072
H     -2.51823   -2.92545    0.25680
H     -3.89331   -1.92898   -0.24139
H     -2.85568   -1.39713    1.08434
H      1.25183    6.69533   -3.02079
H      1.48204    6.96784   -1.28716
H      2.82992    7.20445   -2.40683
H     -2.31915   -0.13125   -1.04144
H     -2.02694   -1.64924   -1.88070
H      3.10046    5.01872   -1.20141
H      2.86874    4.74719   -2.92542
H      0.67273    4.52045   -0.79121
H      0.43899    4.24743   -2.52470
