51

C      1.85488    3.03059    0.74146
C      0.94294    1.50839    2.36620
C      2.66919    3.60620    1.71765
C      1.74687    2.07471    3.35707
C      0.98314    1.97371    1.04269
C      2.60995    3.12169    3.02617
C     -4.26765   -3.35462   -3.72646
C     -2.44704   -1.62609   -3.61313
C     -2.34959   -3.62480   -2.12192
C     -1.26398    0.92409    0.28869
C      0.16096    1.36512   -0.07096
C     -3.93333   -1.86521   -3.87916
C     -3.83216   -3.90930   -2.36373
C      0.74981    0.08777   -0.74858
C     -0.49185   -0.35103   -1.54658
C     -4.30096   -1.32257   -5.26545
C     -4.09551   -5.41448   -2.23405
C      1.29210   -0.95420    0.23368
C     -0.60444   -1.83127   -1.89859
N     -2.03776   -2.15306   -2.25654
O     -1.63467   -0.05447   -0.72142
Cl     3.61913    3.83566    4.26185
H      1.90050    3.41870   -0.27380
H      0.28391    0.69304    2.64911
H      3.33715    4.42482    1.46961
H      1.70397    1.70885    4.37801
H     -5.34410   -3.50438   -3.85492
H     -3.77441   -3.92337   -4.52681
H     -1.82173   -2.14331   -4.34714
H     -2.20715   -0.56272   -3.63358
H     -2.04359   -3.92415   -1.11684
H     -1.71743   -4.14596   -2.84740
H     -1.33128    0.44003    1.26569
H     -1.98085    1.74692    0.25227
H      0.07389    2.11864   -0.86170
H     -4.50191   -1.29953   -3.12733
H     -4.40307   -3.39200   -1.57920
H      1.54955    0.37720   -1.43695
H     -0.55168    0.25478   -2.46125
H     -3.74944   -1.84613   -6.05388
H     -4.08580   -0.25264   -5.35042
H     -5.36823   -1.46369   -5.45585
H     -3.54078   -5.97892   -2.99134
H     -5.15907   -5.62527   -2.37418
H     -3.80791   -5.79222   -1.24772
H      0.52226   -1.32379    0.91948
H      2.08763   -0.51757    0.84047
H      1.72252   -1.81267   -0.29208
H     -0.36122   -2.44882   -1.03460
H      0.03471   -2.11478   -2.73746
H     -2.58705   -1.63823   -1.55099
