38   
Generated by ForceBalance from scan.xyz: Frame 1 of 7
C        0.6171480724    1.0431525810    1.9803798390
C        0.6253146653    0.3770044647    0.7589082882
C        2.8649785234   -0.4214366633    1.2341318830
C        0.5682989709    1.7894999588    4.9295483541
C        2.8721481362    0.2534126310    2.4635094705
C        1.7267390480    0.9856877001    2.8342738800
C        1.7609980358   -0.3502927845    0.3911224414
C        2.1736261300    2.9045961851    5.8209342680
C        2.6891140883    2.3870570573    4.6416299536
C        2.8786116629    3.7374211655    6.7607076241
C        4.2556689036    4.9653802041    7.8573476435
C        4.0908121914   -0.0029742552    3.3310556695
C        4.0290912880    2.3865053215    3.9915236211
C        6.4819780329    4.7796234505    8.9672803723
C        5.6925780368    0.8134232984    4.9977912264
C        5.5080483653    5.6967642608    8.2018481413
N        0.8479655970    2.5250001871    5.9765434322
N        4.1665237144    4.0809884914    6.7312424084
N        3.0498727397    5.3278962894    8.2288515726
N        1.6563612482    1.6713379627    4.0763836513
N        4.6146635646    1.0433356445    4.0365396025
O        4.5800863351   -1.1341581290    3.3428782510
O        2.3690403162    4.0467101622    7.9698398997
Cl       1.7881888964   -1.1874212810   -1.1462075845
H       -0.2490929010    1.6313449453    2.2668534646
H       -0.2321650050    0.4298115667    0.0961198637
H        3.7281530537   -1.0215916769    0.9688197705
H       -0.3720556226    1.2921656874    4.7329708357
H        3.9532935250    2.7272171289    2.9522995337
H        4.6845785569    3.0710514404    4.5279730477
H        6.0368959473    4.4281482464    9.9029317994
H        7.4004168827    5.3232219525    9.2077430525
H        6.7486635291    3.9058911512    8.3651016959
H        6.5793670166    1.3920989435    4.7175342928
H        5.3715960647    1.1224108494    5.9978793832
H        5.9386447915   -0.2469369492    4.9969252600
H        5.9826026888    6.0511739524    7.2811461444
H        5.2420948056    6.5630271686    8.8137515722
38   
Generated by ForceBalance from scan.xyz: Frame 2 of 7
C        0.6683717975    1.0137809768    1.9217294799
C        0.7083705036    0.3305524927    0.7103625957
C        2.9432719116   -0.4439496310    1.2451695574
C        0.5488575953    1.8005372999    4.8565073916
C        2.9178053479    0.2480048443    2.4647786010
C        1.7592270074    0.9765984448    2.8006416389
C        1.8572492254   -0.3929176585    0.3778236572
C        2.1252312793    2.9390418665    5.7694458539
C        2.6717705714    2.4097270794    4.6112102773
C        2.8058866773    3.7847373206    6.7227713218
C        4.1671019355    4.9603085929    7.8427135764
C        4.1194910342    0.0134460754    3.3615146901
C        4.0240099400    2.4109970195    3.9867114601
C        6.4749110540    4.6903953022    8.7711878446
C        5.6803999066    0.8666312414    5.0478878309
C        5.4219239777    5.6733626568    8.2281631239
N        0.7998777272    2.5522491143    5.9000709579
N        4.0798517186    4.1372913049    6.7123991404
N        2.9868603957    5.2495198151    8.3436192793
N        1.6559556287    1.6780713273    4.0313318129
N        4.6217097310    1.0743640438    4.0610022063
O        4.6166901432   -1.1137010246    3.4004601382
O        2.2106743091    4.1293010920    7.8811281806
Cl       1.9241989902   -1.2511525225   -1.1467207010
H       -0.2082484324    1.5992919535    2.1807813280
H       -0.1347205530    0.3674231172    0.0282990736
H        3.8165942416   -1.0408731141    1.0071143203
H       -0.3837126616    1.2943675664    4.6460927149
H        3.9649639258    2.7356574491    2.9412996742
H        4.6640734985    3.1089340894    4.5240474433
H        6.1101333774    4.1809027288    9.6683498525
H        7.3934118016    5.2249205301    9.0313184465
H        6.7203774997    3.9310037167    8.0227860906
H        6.5669787237    1.4518658925    4.7808055102
H        5.3345524100    1.1822198786    6.0377385241
H        5.9378351348   -0.1909157213    5.0642533916
H        5.8205071216    6.1912354042    7.3492425405
H        5.1729834639    6.4236984205    8.9830534029
38   
Generated by ForceBalance from scan.xyz: Frame 3 of 7
C        0.6645753811    1.0166384850    1.9307068195
C        0.7116374730    0.3203935379    0.7270299566
C        2.9461958262   -0.4419734935    1.2803089211
C        0.5286523422    1.8337612809    4.8552274818
C        2.9133124446    0.2629957725    2.4923076479
C        1.7512428854    0.9919661577    2.8152957512
C        1.8639421820   -0.4035045482    0.4076792149
C        2.0982125389    2.9837915078    5.7661766672
C        2.6518945827    2.4455961993    4.6167205180
C        2.7766971575    3.8279700125    6.7257425237
C        4.1522576952    4.9753278585    7.8495148079
C        4.1124366073    0.0417635961    3.3958967486
C        4.0062731811    2.4448361106    3.9969696409
C        6.4929185293    4.6236000518    8.6799250214
C        5.6657889910    0.9172576050    5.0776311661
C        5.4249816260    5.6462136965    8.2550837497
N        0.7738156647    2.5947338410    5.8941267974
N        4.0446116684    4.1858041091    6.7136550309
N        3.0053738383    5.1797176328    8.4539649131
N        1.6398092531    1.7055975167    4.0380779571
N        4.6088425489    1.1112661119    4.0863604687
O        4.6134881884   -1.0831939441    3.4478541141
O        2.1420305535    4.2394831625    7.8356532916
Cl       1.9401557141   -1.2782974823   -1.1070954933
H       -0.2147155098    1.6026247897    2.1793952335
H       -0.1284867262    0.3476015173    0.0408538508
H        3.8222853604   -1.0388898751    1.0526457518
H       -0.4022214792    1.3244248994    4.6450512999
H        3.9496104743    2.7584818903    2.9480842949
H        4.6422634473    3.1504387751    4.5289464211
H        6.1569509895    4.0436499263    9.5450177971
H        7.4218166048    5.1344943198    8.9507768233
H        6.7096015880    3.9266811502    7.8649465194
H        6.5505711305    1.5038582048    4.8074773539
H        5.3162708845    1.2402612026    6.0638686599
H        5.9278506602   -0.1389514290    5.1044917726
H        5.7936196647    6.2348557342    7.4080501710
H        5.2053542211    6.3365852393    9.0736017049
38   
Generated by ForceBalance from scan.xyz: Frame 4 of 7
C        0.6727007987    1.0175087853    1.9305448808
C        0.7245398190    0.3134442850    0.7315725919
C        2.9576360932   -0.4425854550    1.2972623710
C        0.5265082651    1.8491364657    4.8518379814
C        2.9199881395    0.2702569699    2.5045277366
C        1.7560754303    0.9999991704    2.8193198460
C        1.8784602218   -0.4114544854    0.4205453176
C        2.0926670285    3.0032340846    5.7633736907
C        2.6493066267    2.4640697842    4.6162054171
C        2.7736104310    3.8389214046    6.7304594170
C        4.1464270166    4.9671241545    7.8574340317
C        4.1169988010    0.0566141495    3.4128302433
C        4.0043807065    2.4631013639    3.9979891057
C        6.5181028565    4.5548396815    8.5906460880
C        5.6644992173    0.9460917824    5.0926841350
C        5.4285329169    5.5994313276    8.2981158994
N        0.7691872339    2.6113541423    5.8905426921
N        4.0395584567    4.1914074585    6.7198525614
N        3.0277178344    5.0894161919    8.5344928993
N        1.6394438670    1.7205586576    4.0375060861
N        4.6103870578    1.1317130878    4.0968223086
O        4.6195024491   -1.0672533866    3.4736644206
O        2.0976142884    4.3318504998    7.7813787024
Cl       1.9607141030   -1.2963957484   -1.0880842487
H       -0.2081144607    1.6040516096    2.1724263005
H       -0.1133427600    0.3353054441    0.0424747359
H        3.8352231665   -1.0398982695    1.0765237844
H       -0.4033838747    1.3383388466    4.6408679017
H        3.9478335614    2.7691879824    2.9469076116
H        4.6384108799    3.1737217375    4.5254650715
H        6.2123114235    3.8893324990    9.4038624782
H        7.4494938795    5.0481385602    8.8848210064
H        6.7174098804    3.9429935657    7.7061744325
H        6.5515675178    1.5273276599    4.8183058658
H        5.3133815569    1.2810794769    6.0743157993
H        5.9239127260   -0.1103970539    5.1319155398
H        5.7673692628    6.2745727541    7.5041473013
H        5.2254331439    6.2074226799    9.1834452714
38   
Generated by ForceBalance from scan.xyz: Frame 5 of 7
C        0.6655589042    1.0203439781    1.9259475286
C        0.7177490969    0.3012205397    0.7359962629
C        2.9523326337   -0.4448066702    1.3110451088
C        0.5188416705    1.8885103726    4.8368248118
C        2.9143850229    0.2832138317    2.5091965700
C        1.7493363294    1.0153519022    2.8143793013
C        1.8727361618   -0.4259802670    0.4344704357
C        2.0858747242    3.0509899858    5.7363950090
C        2.6415222743    2.5003216526    4.5938383277
C        2.7723116349    3.8805918708    6.7028900361
C        4.1623257533    4.9968643199    7.8399268774
C        4.1127242097    0.0826828161    3.4191044727
C        3.9960919056    2.4953405360    3.9748219377
C        6.5511085891    4.5011194845    8.4840485938
C        5.6623506052    0.9959071558    5.0848972320
C        5.4622823919    5.5709121640    8.3051409040
N        0.7624482760    2.6596494812    5.8685673472
N        4.0458361576    4.2169969818    6.6983820090
N        3.0636432429    5.0385179795    8.5572204747
N        1.6318004820    1.7512138441    4.0233480454
N        4.6048668315    1.1666348380    4.0897567002
O        4.6174784423   -1.0394110298    3.4926146723
O        2.0888269868    4.4847055782    7.6887442682
Cl       1.9559448370   -1.3299788713   -1.0626805670
H       -0.2159166040    1.6087812719    2.1607366377
H       -0.1203010618    0.3131532376    0.0468491140
H        3.8305508088   -1.0438080938    1.0975423139
H       -0.4112103178    1.3758618140    4.6311334315
H        3.9377754571    2.7883906516    2.9201307527
H        4.6285619805    3.2135202084    4.4938650235
H        6.2580438841    3.7712685753    9.2450614189
H        7.4916719376    4.9637896938    8.7983193315
H        6.7262235244    3.9645576131    7.5475170871
H        6.5508704753    1.5678093141    4.7957603697
H        5.3164662143    1.3520634331    6.0607699053
H        5.9176400524   -0.0606971417    5.1435018279
H        5.7876552208    6.3095005793    7.5629578158
H        5.2832456094    6.1084343170    9.2400249715
38   
Generated by ForceBalance from scan.xyz: Frame 6 of 7
C        0.6922360662    0.9779668172    1.9165108210
C        0.7553213730    0.2448924156    0.7356684007
C        2.9918884028   -0.4799943054    1.3300761499
C        0.5257539022    1.8810495695    4.8161045318
C        2.9433479914    0.2622338370    2.5190711769
C        1.7720486539    0.9904347618    2.8095855610
C        1.9163385633   -0.4784818963    0.4483070225
C        2.0829883971    3.0597863152    5.7112986892
C        2.6466001404    2.4990883156    4.5762714346
C        2.7639575387    3.8893181107    6.6783048114
C        4.1398664495    4.9979227798    7.8482496833
C        4.1388905571    0.0803457112    3.4368283091
C        4.0035769396    2.4983354873    3.9627589511
C        6.5401249331    4.4688689934    8.4514754105
C        5.6771881938    1.0249129029    5.0963166917
C        5.4378138137    5.5357540569    8.3579794444
N        0.7604113096    2.6624731167    5.8414072001
N        4.0417078890    4.2262172084    6.6830204399
N        3.0559350443    4.9226792027    8.5887130680
N        1.6442360515    1.7401877322    4.0090189588
N        4.6220343070    1.1758600389    4.0953066504
O        4.6500075875   -1.0376289363    3.5262851782
O        2.0690787256    4.5859301373    7.5984183370
Cl       2.0124095946   -1.3997404181   -1.0373825091
H       -0.1942125575    1.5633299630    2.1400528868
H       -0.0793958597    0.2430147157    0.0424058582
H        3.8749019216   -1.0758864701    1.1279557512
H       -0.4006280373    1.3617408951    4.6105081282
H        3.9467157173    2.7790383159    2.9046172304
H        4.6278976834    3.2271582638    4.4768805479
H        6.2550199286    3.6775580967    9.1515763804
H        7.4746632734    4.9167859542    8.8031428222
H        6.7213058085    4.0104776141    7.4757326501
H        6.5593789588    1.6061995390    4.8067444173
H        5.3231532283    1.3835328379    6.0683313736
H        5.9452946731   -0.0280294315    5.1628153384
H        5.7542125044    6.3349560356    7.6761894910
H        5.2529613495    5.9998176580    9.3304084349
38   
Generated by ForceBalance from scan.xyz: Frame 7 of 7
C        0.6816170448    1.0089067221    1.8700539965
C        0.7565489631    0.2656473303    0.6963432311
C        2.9716317400   -0.4853182916    1.3389168878
C        0.4714580982    1.9324846426    4.7628182654
C        2.9108190790    0.2675118695    2.5207142556
C        1.7442748414    1.0139313477    2.7834564570
C        1.9126635455   -0.4761059921    0.4373298966
C        2.0299465839    3.0891560408    5.6843713006
C        2.6049389718    2.5180993063    4.5583950577
C        2.7094108097    3.8956619957    6.6647122175
C        4.0978574423    4.9493528033    7.9174823230
C        4.0881974008    0.0768140633    3.4604744934
C        3.9735714395    2.4988030839    3.9723360917
C        6.5799761575    4.5050159841    8.2218880478
C        5.6100046809    1.0110874076    5.1414752916
C        5.3948294592    5.4535667621    8.4556919404
N        0.6987440225    2.7111192470    5.7910149603
N        3.9962953530    4.2429795355    6.6731584698
N        3.0474185808    4.6819166220    8.6593713845
N        1.6032807416    1.7741671505    3.9750486847
N        4.5710154952    1.1690286496    4.1244375585
O        4.5860545944   -1.0460102374    3.5625171548
O        2.0480386057    4.6328751646    7.5787492777
Cl       2.0236434878   -1.4112702324   -1.0383760601
H       -0.2007705052    1.6080002278    2.0722672657
H       -0.0648718719    0.2695613191   -0.0126184161
H        3.8499835164   -1.0948879832    1.1584057811
H       -0.4585266846    1.4268378524    4.5400365476
H        3.9409381152    2.7751220040    2.9120120451
H        4.5951851784    3.2229108987    4.4967004280
H        6.4093886860    3.5435111596    8.7156731873
H        7.4989690027    4.9403314626    8.6264859445
H        6.7239523179    4.3165534268    7.1553612953
H        6.5129283045    1.5586184092    4.8496469452
H        5.2547941117    1.4042272041    6.0993464111
H        5.8459691874   -0.0473843660    5.2362770601
H        5.5922435005    6.4188396232    7.9704023408
H        5.2520693317    5.6645346827    9.5194866155
