29   

C        1.1737863943   -1.0437210711    0.1871704849
C        1.5359322949   -2.1914162125    0.8948024523
C        1.0123318274    0.1668316291    0.8650606076
C        1.7281714674   -2.1279296514    2.2791259382
C        1.1999333251    0.2265234585    2.2513449367
C        1.9413378146   -0.1056109671    6.4290863523
C        2.8855048711   -1.1621324287    6.1910753271
C        1.5456137661   -0.9251712484    2.9872817238
C        1.2015942392    0.0118984549    5.2870464126
C       -0.0428085619    0.8342774760    5.2069153462
C       -2.2484283925    1.4705101410    4.3057328678
C       -1.4021860198   -0.8424618099    3.9395678679
N        2.7131908406   -1.6384571613    4.9856497254
N        1.7321341875   -0.8968843487    4.3879068174
N       -1.1475811881    0.5179570778    4.4049811594
O       -0.1681579353    1.7764317741    5.9949470229
H        1.0273272942   -1.0912359267   -0.8863079655
H        1.6711150334   -3.1325718062    0.3731528638
H        0.7472925956    1.0634893375    0.3157711811
H        2.0129288981   -3.0249643216    2.8186239823
H        1.0892490378    1.1820928323    2.7500255449
H        1.7919433286    0.4338549617    7.3574384717
H        3.6069486315   -1.5316024731    6.9106957328
H       -2.8543876909    1.2623863807    3.4181971153
H       -1.8644179677    2.4916060359    4.2094392912
H       -2.8835884344    1.4110050550    5.1951655407
H       -2.4546974140   -1.0998231345    4.0953456849
H       -0.8153432119   -1.5754455510    4.5012245301
H       -1.1801648895   -0.9365217366    2.8724108167
29   

C        1.1639632417   -1.0077907723    0.1712668328
C        1.5425585014   -2.1529515664    0.8740597385
C        0.9908602106    0.1983763303    0.8535240933
C        1.7385178278   -2.0915993948    2.2580230211
C        1.1827540209    0.2561318272    2.2391415280
C        1.8414623173   -0.1682487546    6.4565567031
C        2.7889241200   -1.2229298040    6.2200683102
C        1.5438121366   -0.8935757924    2.9715866002
C        1.1649125257    0.0005662406    5.2839304068
C       -0.0354678080    0.8745839356    5.1241344206
C       -2.2580712721    1.4496280123    4.2113809285
C       -1.4207579452   -0.8933293196    4.0190490542
N        2.6756948991   -1.6444349927    4.9868134228
N        1.7287160745   -0.8712500517    4.3734629259
N       -1.1705834966    0.4949779394    4.3964448135
O       -0.0809562703    1.9386467130    5.7490483772
H        1.0139560971   -1.0534878263   -0.9017873602
H        1.6869209250   -3.0907663025    0.3489161476
H        0.7138549936    1.0938686689    0.3082104952
H        2.0343517600   -2.9879573236    2.7925787234
H        1.0657012766    1.2113895978    2.7366968549
H        1.6593165762    0.3465697030    7.3927368877
H        3.4727249741   -1.6277481342    6.9572143533
H       -2.8673507254    1.1697919747    3.3460995010
H       -1.8624166947    2.4530476939    4.0219760452
H       -2.8933280244    1.4785694692    5.1021239920
H       -2.4748311504   -1.1410111805    4.1796798469
H       -0.8381930016   -1.5874001655    4.6325733228
H       -1.1841986179   -1.0557823557    2.9631074752
29   

C        1.1454257837   -0.9760642585    0.1833804127
C        1.5224119757   -2.1163805721    0.8945637854
C        0.9904717129    0.2385786422    0.8542114580
C        1.7331853092   -2.0419744971    2.2758223915
C        1.1983606173    0.3098860450    2.2366862223
C        1.7943351908   -0.1591887780    6.4884130089
C        2.7293175921   -1.2271706266    6.2588507661
C        1.5558647094   -0.8350420313    2.9794737449
C        1.1735022961    0.0527941478    5.2934849039
C        0.0269390464    0.9823926843    5.0549213552
C       -2.2093184837    1.5284767865    4.1409696692
C       -1.4301189995   -0.8460875543    4.1713497323
N        2.6589600371   -1.6106122592    5.0094689245
N        1.7509629454   -0.8029417044    4.3808963546
N       -1.1523455240    0.5644990755    4.4267743689
O        0.0913661450    2.1411820182    5.4759504359
H        0.9830516140   -1.0317523466   -0.8873791995
H        1.6534636094   -3.0608268190    0.3779545135
H        0.7158177152    1.1309247686    0.3025380254
H        2.0261804356   -2.9359604028    2.8157694535
H        1.0991074824    1.2745934851    2.7195165254
H        1.5938799025    0.3430580082    7.4273671774
H        3.3763486956   -1.6655135770    7.0098843233
H       -2.7901337317    1.2058252523    3.2710360223
H       -1.7894361722    2.5114941705    3.9035698544
H       -2.8775628018    1.6248052360    5.0021764725
H       -2.4922407702   -1.0554011052    4.3333551397
H       -0.8722103248   -1.4945139673    4.8542061718
H       -1.1773438419   -1.1069506901    3.1389965192
29   

C        1.1773503230   -0.9942256335    0.1561664515
C        1.5429826822   -2.1488728901    0.8495845280
C        1.0553288013    0.2153464633    0.8422428718
C        1.7733624854   -2.0939603651    2.2286885737
C        1.2841508038    0.2676332176    2.2221469925
C        1.8056685265   -0.3617783339    6.4941233983
C        2.7302777033   -1.4336976595    6.2403201818
C        1.6279899559   -0.8922339870    2.9491113354
C        1.2447127771   -0.0707515946    5.2871170736
C        0.1549721515    0.9173344362    5.0037230148
C       -2.0970183708    1.4840666668    4.1212125008
C       -1.3954849888   -0.9088798321    4.3142401931
N        2.7069660051   -1.7419698880    4.9681490708
N        1.8384089579   -0.8837426295    4.3497872294
N       -1.0737100105    0.5059811139    4.4756324989
O        0.3357994361    2.1149169581    5.2399922055
H        0.9987944198   -1.0347247049   -0.9126747696
H        1.6494717883   -3.0896503113    0.3208429048
H        0.7906629245    1.1192007909    0.3045846658
H        2.0559339633   -3.0001225710    2.7535576155
H        1.2142907430    1.2315091103    2.7116724703
H        1.5829836308    0.0969259419    7.4499338537
H        3.3390568644   -1.9264021304    6.9896339961
H       -2.6220667445    1.1652263672    3.2152091449
H       -1.6589018844    2.4648789085    3.9104107619
H       -2.8193828477    1.5879746307    4.9365116899
H       -2.4677890004   -1.0715164093    4.4619073693
H       -0.8750709716   -1.5242749481    5.0550223000
H       -1.1250641801   -1.2501048347    3.3100055981
29   

C        1.2177470776   -1.0010698004    0.1140910503
C        1.5974216651   -2.1461067478    0.8153527621
C        1.0793227121    0.2108200489    0.7925044540
C        1.8245802184   -2.0793957273    2.1944590505
C        1.3056678923    0.2750213327    2.1723361718
C        1.7023162984   -0.4471148345    6.4753250950
C        2.6631973754   -1.4868932957    6.2238104323
C        1.6627260409   -0.8752895897    2.9084378220
C        1.2135677790   -0.1039027503    5.2510641705
C        0.1515225683    0.9037023445    4.9194406818
C       -2.1453688612    1.4453049409    4.1291279271
C       -1.4526712430   -0.9386780748    4.4725281114
N        2.7231522931   -1.7279961503    4.9383572696
N        1.8712832429   -0.8589279695    4.3103314219
N       -1.1159038205    0.4813442588    4.5073816211
O        0.4045305853    2.1100874189    4.9669861610
H        1.0413776148   -1.0504675227   -0.9547071886
H        1.7172039796   -3.0887250255    0.2928315504
H        0.8045422943    1.1081799051    0.2491009694
H        2.1176408411   -2.9794453976    2.7239222111
H        1.2265416357    1.2431795318    2.6510823905
H        1.4208920681   -0.0360955756    7.4371341776
H        3.2390038520   -2.0047685365    6.9821542147
H       -2.2406460238    1.4803031359    3.0393745989
H       -1.9136453679    2.4523757511    4.4895375310
H       -3.1088837091    1.1612707394    4.5634636607
H       -2.5331161473   -1.0797843324    4.5750828646
H       -0.9785674523   -1.4790566695    5.2981294260
H       -1.1322578992   -1.3804888806    3.5234780733
29   

C        1.3473708651   -1.0828191272    0.0207562624
C        1.7223792558   -2.2035420936    0.7620834876
C        1.1815883536    0.1452761391    0.6622808580
C        1.9182878369   -2.0958151787    2.1434492215
C        1.3766082915    0.2500156913    2.0444620004
C        1.6085093811   -0.4672485571    6.3885379108
C        2.6124289751   -1.4722585391    6.1708101694
C        1.7299619605   -0.8738897237    2.8211881481
C        1.1899171973   -0.1014393362    5.1446022832
C        0.1405804474    0.9081074520    4.7721946150
C       -2.2073722323    1.4635035263    4.1827321859
C       -1.5483270547   -0.9059446785    4.6866001471
N        2.7575717086   -1.6752591877    4.8860217263
N        1.9169162870   -0.8176668693    4.2259872598
N       -1.1767420752    0.4991982706    4.5546869546
O        0.4462165882    2.0917545157    4.6070035900
H        1.1962181035   -1.1631527914   -1.0499900423
H        1.8634936245   -3.1589208067    0.2689914101
H        0.9112626527    1.0249585062    0.0886022578
H        2.2091873148   -2.9784120352    2.7024496924
H        1.2817009280    1.2315188332    2.4889310916
H        1.2624429464   -0.0863083019    7.3414888925
H        3.1579407245   -1.9928656976    6.9494043399
H       -2.3400592305    1.4695621599    3.0964047247
H       -1.9469957892    2.4748461457    4.5109556515
H       -3.1592637017    1.2063427581    4.6576128584
H       -2.6219871686   -1.0048867637    4.8739902475
H       -1.0305830285   -1.3761424982    5.5284420640
H       -1.3029764280   -1.4476446195    3.7672816422
29   

C        1.5947826700   -1.1315618789   -0.1230887288
C        1.8735589915   -2.2567963082    0.6527529953
C        1.4354823503    0.1093642956    0.4944955907
C        1.9795122491   -2.1395408225    2.0432703517
C        1.5419101270    0.2228880974    1.8856684977
C        1.4483544128   -0.5480900898    6.2533989628
C        2.4849612023   -1.5266833638    6.0811922933
C        1.7957161941   -0.9027726981    2.6957468558
C        1.1108955451   -0.1518180714    4.9932783361
C        0.0592284850    0.8472490384    4.6035484399
C       -2.3206981434    1.4849178764    4.3320680873
C       -1.7125772884   -0.8470645840    5.0211313418
N        2.7198455812   -1.6928390564    4.8053016633
N        1.9070760131   -0.8366558515    4.1082084460
N       -1.2934517934    0.5069065159    4.6732790188
O        0.3782588206    1.9764862922    4.2209970149
H        1.5143603049   -1.2181734336   -1.2009272969
H        2.0109339277   -3.2225914026    0.1794303996
H        1.2414882331    0.9928396437   -0.1036918532
H        2.1991253245   -3.0253694395    2.6288822432
H        1.4662775649    1.2130636179    2.3101244693
H        1.0290973330   -0.2020358877    7.1900582279
H        2.9880916705   -2.0561390915    6.8820352485
H       -2.5416005887    1.4424885278    3.2611062823
H       -2.0002130255    2.4996225001    4.5899621937
H       -3.2379020847    1.2827086497    4.8941685035
H       -1.8834114353   -0.9271662778    6.0990360465
H       -0.9664014152   -1.5894107558    4.7207801641
H       -2.6386113671   -1.1013857083    4.4958609375
29   

C        1.7710260636   -1.1431383720   -0.2347587869
C        1.9396285882   -2.2805743596    0.5552857464
C        1.6576142875    0.1080834433    0.3729439435
C        1.9791552999   -2.1642058966    1.9493005591
C        1.7009565412    0.2202902328    1.7678079226
C        1.3236125156   -0.6492883809    6.1307939077
C        2.4135780879   -1.5711108889    5.9823138660
C        1.8379466634   -0.9158897528    2.5891466419
C        1.0225179113   -0.2308855503    4.8669839108
C       -0.0455616581    0.7431753639    4.4728855156
C       -2.4143621522    1.4716089595    4.4734462720
C       -1.8022571563   -0.8112396802    5.3050785040
N        2.7159390076   -1.6862455616    4.7158821613
N        1.8956230142   -0.8500845275    4.0033158437
N       -1.3849212717    0.4827668702    4.7755038146
O        0.2399787320    1.8000665705    3.9018810902
H        1.7417358939   -1.2288100687   -1.3152293885
H        2.0440763497   -3.2545997036    0.0905637295
H        1.5498917001    0.9996895256   -0.2347185022
H        2.1166081170   -3.0572007005    2.5488390940
H        1.6732222565    1.2135786568    2.1920430462
H        0.8507527388   -0.3481853773    7.0573446321
H        2.9048883518   -2.0989660559    6.7915040028
H       -2.7678127102    1.3478534827    3.4452067454
H       -2.0297350083    2.4891474196    4.5986813270
H       -3.2608436190    1.3593274291    5.1582706979
H       -1.8027554544   -0.7932955237    6.3992186276
H       -1.1446061205   -1.6148177557    4.9582883250
H       -2.8103992365   -1.0549645113    4.9550202442
29   

C        1.8730637043   -1.2134043815   -0.2512417010
C        3.0024639893   -1.5391702225    0.5010592765
C        0.6759606950   -0.9052024926    0.3970061807
C        2.9329489497   -1.5526425858    1.8987889588
C        0.6108115862   -0.9133605415    1.7954529484
C        1.1147504056   -1.0140283759    6.1069324696
C        2.1170640965   -2.0362816402    5.9716414279
C        1.7430578881   -1.2256277564    2.5779348688
C        0.9058705891   -0.5408580848    4.8435311090
C        0.1120838850    0.6510356256    4.4087066115
C       -1.9428561820    2.0341488806    4.4713954372
C       -1.9304618701   -0.2419419316    5.5188634006
N        2.4657115886   -2.1452354047    4.7157543260
N        1.7121578722   -1.2573757605    3.9944477526
N       -1.2156070148    0.8161460489    4.8135478906
O        0.6328949512    1.5145926555    3.7006846186
H        1.9249449093   -1.2018195443   -1.3341235301
H        3.9356562787   -1.7797561451    0.0044209885
H       -0.2063507484   -0.6603011953   -0.1833791408
H        3.8186912346   -1.8058815173    2.4707550770
H       -0.3402337605   -0.6907070735    2.2603440593
H        0.6848950628   -0.6505370696    7.0317969121
H        2.5394330570   -2.6123676339    6.7868358454
H       -2.4249367133    1.9263070313    3.4949993720
H       -1.2707592092    2.8982459544    4.4434940618
H       -2.7070593877    2.2442390416    5.2264111052
H       -1.8032528924   -0.1328206428    6.6003297837
H       -1.5776397547   -1.2316970665    5.2114322909
H       -2.9987988782   -0.1983213662    5.2840051961
29   

C        1.9625094686   -1.2952725701   -0.2717975015
C        3.0937583376   -1.5122189141    0.5165827210
C        0.7250519251   -1.0803843973    0.3380787693
C        2.9852577149   -1.5110545962    1.9118485121
C        0.6212567700   -1.0725191773    1.7343374474
C        0.9850679112   -1.0987267677    6.0518839163
C        2.0300557501   -2.0804699708    5.9480817025
C        1.7529743249   -1.2752406407    2.5510838379
C        0.8075588372   -0.6158368565    4.7854583254
C        0.0318693726    0.5782836466    4.3326258500
C       -1.9027858567    2.1149898409    4.4969472279
C       -1.9508982858   -0.0782781431    5.6997003950
N        2.4398529397   -2.1546232694    4.7091658483
N        1.6818332730   -1.2894420980    3.9657088271
N       -1.2272081401    0.8750104525    4.8660496007
O        0.4936794417    1.3300982378    3.4714707121
H        2.0446008374   -1.2947927546   -1.3528251244
H        4.0580423349   -1.6791008554    0.0500846524
H       -0.1576491953   -0.9187283057   -0.2700293773
H        3.8710661348   -1.6796447027    2.5140263164
H       -0.3537935536   -0.9177807932    2.1777404300
H        0.5199243051   -0.7578494709    6.9678145184
H        2.4394819396   -2.6506525310    6.7739622584
H       -2.4622025620    1.9798936951    3.5662384350
H       -1.1814130558    2.9283523681    4.3651616083
H       -2.5938862523    2.4214605878    5.2885716965
H       -1.7256945689    0.0903824585    6.7572253363
H       -1.6975212572   -1.1093421801    5.4328937012
H       -3.0297480145    0.0313458530    5.5495562899
29   

C        2.1889892384   -1.5700984329   -0.1653607479
C        3.2987284596   -1.6410627527    0.6786481824
C        0.9092368153   -1.4551096140    0.3818785002
C        3.1261556422   -1.5939469408    2.0665896880
C        0.7412096749   -1.4006931456    1.7709733103
C        0.8902192556   -1.2535893935    6.0908721867
C        1.9791009907   -2.1902010905    6.0529931421
C        1.8486183686   -1.4548361729    2.6412525272
C        0.7604808170   -0.7808675991    4.8125864785
C        0.0067297344    0.4053014798    4.3073603893
C       -1.7971324270    2.0909873625    4.4690089678
C       -1.9124297184    0.0251170758    5.8675823235
N        2.4657828073   -2.2460559870    4.8425521371
N        1.7132889139   -1.4207112316    4.0503966737
N       -1.1765998730    0.8465457288    4.9136359744
O        0.3959766508    1.0184575997    3.3103786921
H        2.3206353753   -1.6047551229   -1.2408815023
H        4.2952488175   -1.7299111499    0.2611279887
H        0.0439371843   -1.4056753346   -0.2690661839
H        3.9940765775   -1.6498871750    2.7140273586
H       -0.2608001793   -1.3198700405    2.1729240508
H        0.3786274710   -0.9266399319    6.9860464274
H        2.3646558321   -2.7390319635    6.9044359815
H       -2.3984929089    1.9159267681    3.5716248733
H       -1.0354487069    2.8460879333    4.2474546253
H       -2.4392809457    2.4997142356    5.2556535137
H       -1.6017833033    0.2553057924    6.8912861606
H       -1.7635182081   -1.0407771721    5.6674557105
H       -2.9870858691    0.2145163114    5.7793345435
29   

C        2.7420558807   -0.9867459347   -0.0929999663
C        2.7254663140    0.0359464879    0.8584492883
C        2.2626396805   -2.2540128614    0.2441959459
C        2.2196849051   -0.2065416125    2.1416110154
C        1.7648733485   -2.4938911511    1.5298825748
C        0.5216200041   -1.5771011866    5.8752001683
C        1.2576612880   -2.7952245416    5.6852259179
C        1.7142155394   -1.4726172098    2.4967186287
C        0.5018802141   -0.9512793892    4.6548423656
C       -0.3477061885    0.1682939285    4.1472933270
C       -1.9736480508    2.0111413491    4.4251945672
C       -0.7310046490    1.1696357102    6.4148592003
N        1.6250647634   -2.8930439460    4.4376467564
N        1.2167671990   -1.7581934030    3.7907118083
N       -1.0410699775    1.0430741098    4.9967871320
O       -0.4298266536    0.3979882272    2.9376911475
H        3.1260976808   -0.7981046082   -1.0890593344
H        3.1013665326    1.0200521538    0.6034654655
H        2.2729030624   -3.0527542167   -0.4887034959
H        2.2176002012    0.5960372805    2.8687345247
H        1.3964688052   -3.4810124718    1.7854661637
H        0.0054027771   -1.3157085411    6.7877346616
H        1.4445146985   -3.5412507994    6.4490090065
H       -2.6845798367    2.3530038405    5.1840869124
H       -2.5558560125    1.5553152962    3.6172898846
H       -1.4296446817    2.8748909698    4.0305195225
H        0.3329253384    0.9903320808    6.5998078555
H       -1.3372103191    0.4746177839    7.0038987259
H       -0.9406288569    2.1874032220    6.7595441957
29   

C        2.7497130132   -0.9419969409   -0.0462357588
C        2.5591791990    0.0893824966    0.8759103608
C        2.4208797659   -2.2527956197    0.3038668101
C        2.0308399178   -0.1890295264    2.1424347415
C        1.9000432097   -2.5281571270    1.5732459145
C        0.3563543907   -1.6776579266    5.8403510348
C        1.1438443276   -2.8688085354    5.6809719258
C        1.6772776565   -1.5026177708    2.5115429551
C        0.3790611164   -1.0498206716    4.6238956977
C       -0.4803542886    0.0571704468    4.1083579227
C       -1.9460948585    2.0253731050    4.4215312863
C       -0.5028662341    1.2515850796    6.3073289537
N        1.5793896376   -2.9438216786    4.4522550978
N        1.1583423117   -1.8218538512    3.7898414179
N       -0.9985627011    1.0490816352    4.9510350233
O       -0.7360489795    0.1454218243    2.9048340872
H        3.1518256041   -0.7263082187   -1.0296295243
H        2.8185547641    1.1079525520    0.6110237927
H        2.5656220376   -3.0585374145   -0.4068363371
H        1.9000119161    0.6252438793    2.8438243187
H        1.6478738194   -3.5494084982    1.8360148551
H       -0.2181904803   -1.4222957215    6.7204858192
H        1.3195769551   -3.6124133514    6.4497329995
H       -2.5403375088    2.4594258426    5.2319003029
H       -2.6451057143    1.5484383173    3.7262930337
H       -1.4138960520    2.8267454962    3.8998406490
H        0.5472108353    0.9540473604    6.3919801452
H       -1.1056779886    0.6857244835    7.0241867801
H       -0.5515103309    2.3125206821    6.5730176830
29   

C        2.7492533987   -0.8179407154    0.0333573264
C        2.4328243845    0.2010737419    0.9338522050
C        2.5433132013   -2.1500115867    0.3960048374
C        1.9019061951   -0.1115007614    2.1911422170
C        2.0193343796   -2.4593642429    1.6562838064
C        0.2471073712   -1.7245266055    5.8555477916
C        1.0922591551   -2.8792211014    5.7175761519
C        1.6720141472   -1.4493014970    2.5738286173
C        0.3014002958   -1.0834634010    4.6494969952
C       -0.5526318550    0.0291167103    4.1342942633
C       -1.8483788302    2.1146292602    4.4558814733
C       -0.2839884535    1.3338588565    6.2453635359
N        1.5937125128   -2.9133597438    4.5110232140
N        1.1515583578   -1.8024286367    3.8430418466
N       -0.9112032540    1.1096591743    4.9477506257
O       -0.9594893640    0.0132212175    2.9705622574
H        3.1541555242   -0.5761233384   -0.9428284871
H        2.5978477461    1.2367550060    0.6595824860
H        2.7860604015   -2.9465235844   -0.2982252457
H        1.6803014738    0.6992684991    2.8729118207
H        1.8627275687   -3.4976871543    1.9265728785
H       -0.3717726631   -1.4865299717    6.7110208631
H        1.2642641100   -3.6259762453    6.4841187986
H       -2.3689479863    2.5907020742    5.2928853611
H       -2.6124413884    1.6573371727    3.8183940713
H       -1.3172107979    2.8806220736    3.8827072552
H        0.7424147486    0.9533774317    6.2597622167
H       -0.8628721343    0.8508512730    7.0385327008
H       -0.2267610160    2.4064210759    6.4570535982
29   

C        2.7666334193   -0.7652883722    0.1283176446
C        2.3337488821    0.2278132905    1.0084663032
C        2.6853735723   -2.1064703570    0.5055103821
C        1.8115049657   -0.1201272080    2.2599352165
C        2.1687485930   -2.4511935237    1.7596725382
C        0.2123800442   -1.8671162671    5.8990322689
C        1.1245177037   -2.9719778649    5.7756846565
C        1.7061203465   -1.4699772722    2.6580806440
C        0.2767980633   -1.2081992148    4.7051343263
C       -0.5889520402   -0.0975406828    4.1991355012
C       -1.7202799913    2.0871441016    4.5038856058
C       -0.0283432877    1.3067939945    6.1779307762
N        1.6768659915   -2.9544471304    4.5902303684
N        1.1959826240   -1.8599714072    3.9214251208
N       -0.7892672688    1.0591966688    4.9581985794
O       -1.1541739580   -0.2030682764    3.1093466093
H        3.1660325354   -0.4961368780   -0.8430192991
H        2.4032842633    1.2714632391    0.7234153687
H        3.0197569162   -2.8832269930   -0.1728820771
H        1.5070839905    0.6787643034    2.9227421046
H        2.1098397552   -3.4972824279    2.0390326087
H       -0.4411490881   -1.6606424931    6.7372099422
H        1.3093370179   -3.7207919975    6.5372191664
H       -2.1658283607    2.5999712403    5.3621818670
H       -2.5423660768    1.6487557013    3.9285174246
H       -1.2005358629    2.8200187409    3.8793108749
H        0.9709435183    0.8634822273    6.1188910045
H       -0.5546737728    0.8971353470    7.0455783595
H        0.1096086592    2.3826730813    6.3257586008
29   

C        2.6905884402   -0.6340951155    0.1098312248
C        1.3188736135   -0.4488117748    0.2881590766
C        3.4370590141   -1.2612925071    1.1077146999
C        0.6972151610   -0.8791097084    1.4665072099
C        2.8121927223   -1.6869774855    2.2853058811
C       -0.0711855041   -1.9975581503    5.7199306458
C        0.7397415919   -3.1611790254    5.5001812916
C        1.4338007226   -1.4858713187    2.5026189010
C        0.0332006179   -1.2568449377    4.5782598119
C       -0.6284140867    0.0574184245    4.2958157052
C       -1.0903329277    2.4178563053    4.8941535181
C        0.6624119890    1.1277831707    6.1352030154
N        1.2854042752   -3.0931096286    4.3143697337
N        0.8466647000   -1.9444739466    3.7077947572
N       -0.3784993718    1.1632062268    5.1132481277
O       -1.4220966647    0.1793742016    3.3577346148
H        3.1706149348   -0.3044496445   -0.8047863736
H        0.7272881208    0.0166248186   -0.4923630477
H        4.5003800957   -1.4230094100    0.9706079643
H       -0.3757985872   -0.7727244187    1.5351044141
H        3.4054451669   -2.1779108862    3.0487287072
H       -0.6485882567   -1.7677756150    6.6068144248
H        0.8869074152   -3.9676412370    6.2092416109
H       -1.1670643896    2.9788550835    5.8309109085
H       -2.1109965599    2.2340483076    4.5428046621
H       -0.5629332561    3.0279399072    4.1544507402
H        1.4737816511    0.4484290527    5.8547651093
H        0.2435403282    0.8113286332    7.0953357613
H        1.1085611400    2.1203203324    6.2539921681
29   

C        2.6615688418   -0.4987665636    0.2657967671
C        1.3001228280   -0.2753257246    0.4736496464
C        3.3928897093   -1.2224778437    1.2077140011
C        0.6740132861   -0.7631884459    1.6267074753
C        2.7636120723   -1.7089246401    2.3591936154
C       -0.2097843813   -2.1292899493    5.7536633300
C        0.6671658848   -3.2476720891    5.5486182243
C        1.3953738499   -1.4738228272    2.6077429046
C       -0.0835061521   -1.3596964462    4.6353602116
C       -0.7724555528   -0.0572251584    4.3434924891
C       -1.0514475477    2.3744696312    4.7350091523
C        0.8005839933    1.1206488332    5.8671117656
N        1.2689577856   -3.1236678290    4.3940042981
N        0.8049128516   -1.9821670550    3.7929969639
N       -0.3625698335    1.1132146623    4.9857031361
O       -1.7060948214   -0.0077137179    3.5378058060
H        3.1452441137   -0.1223705777   -0.6286809746
H        0.7196605461    0.2664519570   -0.2649539449
H        4.4485932776   -1.4110305764    1.0477054471
H       -0.3918024869   -0.6125604503    1.7142285775
H        3.3486266304   -2.2712839493    3.0784811175
H       -0.8372673764   -1.9439314390    6.6166621964
H        0.8181331323   -4.0634864721    6.2460911446
H       -0.9869819249    3.0227680808    5.6145872951
H       -2.1146250444    2.2092966710    4.5319709003
H       -0.6008752068    2.8873091258    3.8797069831
H        1.5344246354    0.3642412588    5.5714096864
H        0.4948859176    0.9377444612    6.9018040256
H        1.3077952123    2.0891548124    5.8136268539
29   

C        2.5649538674   -0.2870966922    0.4779843284
C        1.2079966234   -0.0651076171    0.7158776557
C        3.2970356103   -1.0886755525    1.3541827305
C        0.5871055954   -0.6317902247    1.8351490283
C        2.6736222582   -1.6552412048    2.4715617999
C       -0.3609686399   -2.2752504554    5.8150240257
C        0.5590242239   -3.3561405837    5.5901440831
C        1.3111606222   -1.4241501037    2.7513028929
C       -0.2064912526   -1.4432217280    4.7471847257
C       -0.9112521340   -0.1459593094    4.4653310482
C       -1.0007470386    2.3324125754    4.5858054743
C        0.9521559164    1.0815867484    5.5482975207
N        1.2044335636   -3.1559597401    4.4692874597
N        0.7277699842   -1.9998659459    3.9088703224
N       -0.3346359772    1.0629906738    4.8599009236
O       -1.9747776908   -0.1378004425    3.8403775780
H        3.0451937937    0.1521386312   -0.3893328301
H        0.6281437191    0.5392469298    0.0269991852
H        4.3493614203   -1.2745015866    1.1701160643
H       -0.4758562036   -0.4693086648    1.9516581078
H        3.2597403099   -2.2750094075    3.1412110277
H       -1.0317073902   -2.1536885479    6.6566457206
H        0.7067930945   -4.2018943750    6.2517237718
H       -0.8324361663    3.0369186122    5.4062169788
H       -2.0835413811    2.2028671772    4.4899600271
H       -0.6141814930    2.7656676085    3.6581153809
H        1.0362538678    0.2507462830    6.2557214147
H        1.0687731501    2.0055459166    6.1230378170
H        1.7683442058    1.0170325105    4.8213567581
29   

C        2.5195428415   -0.1958215899    0.6064627042
C        1.1574188020   -0.0135132140    0.8502474391
C        3.2744661639   -0.9948285972    1.4659381368
C        0.5538706362   -0.6169405893    1.9596973316
C        2.6688256662   -1.5982337187    2.5736852452
C       -0.4552370032   -2.4055478617    5.8292895022
C        0.5167471657   -3.4435422591    5.6160605377
C        1.3023193475   -1.4062064540    2.8594191505
C       -0.2625598471   -1.5171608891    4.8148237542
C       -0.9730050314   -0.2187900299    4.5643216072
C       -0.9752986069    2.2685920720    4.5007664333
C        1.0297807070    1.0241785920    5.3460525325
N        1.2243189888   -3.1701567847    4.5489635804
N        0.7359187914   -2.0097754997    4.0101018349
N       -0.3192126728    0.9963544103    4.7887588627
O       -2.1226996172   -0.2166835826    4.1173351724
H        2.9868045476    0.2725884724   -0.2526848011
H        0.5614633384    0.5896029368    0.1741281841
H        4.3309343725   -1.1494797869    1.2765704575
H       -0.5129782207   -0.4820825667    2.0877649657
H        3.2709909977   -2.2149120062    3.2320210006
H       -1.1767106876   -2.3412966358    6.6346220240
H        0.6554111547   -4.3119300621    6.2497075253
H       -0.7832365091    2.9854594409    5.3050644921
H       -2.0611819910    2.1578964377    4.4205352703
H       -0.5970852285    2.6781639420    3.5589284645
H        1.1704740264    0.2274692596    6.0835319612
H        1.2140538411    1.9730233741    5.8593872054
H        1.7711275642    0.9100814879    4.5485861809
29   

C        2.4917132029   -0.1853834041    0.6537460716
C        1.1288902461   -0.0170979829    0.9048562835
C        3.2607800737   -0.9736643268    1.5109818045
C        0.5387249794   -0.6240148917    2.0195805335
C        2.6683702465   -1.5812332391    2.6235928349
C       -0.5424791731   -2.4973844051    5.7933417050
C        0.4586280204   -3.5109065396    5.5962363263
C        1.3018789695   -1.4029744628    2.9155754251
C       -0.3044776188   -1.5586529115    4.8350289968
C       -1.0105165632   -0.2511427580    4.6457890308
C       -0.9971752519    2.2271793464    4.4745092845
C        1.0716464515    1.0113635703    5.1797139784
N        1.2254853778   -3.1806683807    4.5878403377
N        0.7459152466   -2.0083626394    4.0691247716
N       -0.3217758095    0.9626166972    4.7467550520
O       -2.2195759183   -0.2362045782    4.3993686219
H        2.9489527275    0.2859117204   -0.2092469319
H        0.5229917214    0.5783670701    0.2307768724
H        4.3178665043   -1.1167978396    1.3159125124
H       -0.5281336100   -0.4986879164    2.1598180263
H        3.2796569883   -2.1901588194    3.2808640151
H       -1.3064345291   -2.4736574034    6.5610538109
H        0.5751740969   -4.4023527146    6.2016971130
H       -1.3368651445    2.6834283777    5.4092630461
H       -1.8601528749    2.0875511349    3.8156100928
H       -0.3135323180    2.9152482255    3.9671888596
H        1.3118578183    0.1787593042    5.8485726317
H        1.2615226651    1.9333861376    5.7382052612
H        1.7417763550    0.9820968503    4.3147768281
29   

C        0.8285579432   -1.7965764020    0.3697254888
C        0.0697509114   -2.2706528794    1.4415758480
C        1.8927529780   -0.9251176184    0.6069297331
C        0.3657456010   -1.8627586109    2.7475495439
C        2.1891063857   -0.5216430842    1.9135320800
C        1.6507981013   -0.1065374028    6.4780033598
C        2.9988606172   -0.0061481777    5.9879360932
C        1.4212227456   -0.9636373692    3.0081708913
C        0.8812775643   -0.3899416200    5.3891353612
C       -0.6118978269   -0.4657965447    5.3659277588
C       -2.8277056047    0.0785296835    4.4024932574
C       -0.7956106262    1.2892077784    3.5956018876
N        3.0131961097   -0.2199854259    4.6967818950
N        1.7330983056   -0.5135367663    4.3132439591
N       -1.3797438423    0.2518225790    4.4410513734
O       -1.1962928435   -1.1337085402    6.2242191178
H        0.5985253830   -2.1114285890   -0.6421776854
H       -0.7461881066   -2.9624777830    1.2635932354
H        2.4917907976   -0.5605545762   -0.2202861616
H       -0.2241382342   -2.2741354669    3.5577704944
H        3.0192600761    0.1555752676    2.0832955754
H        1.3115083059    0.0534762706    7.4945368206
H        3.8678286539    0.2341216856    6.5896094481
H       -3.3101203871    0.7604765005    5.1094035853
H       -3.1059608572   -0.9504546663    4.6530009782
H       -3.2058882360    0.2801021925    3.3952261253
H       -0.5721744378    0.8931644983    2.6001403889
H        0.1200958279    1.6966088996    4.0354632614
H       -1.4943636401    2.1250385217    3.4893621970
29   

C        0.8403210280   -1.7953514111    0.3555008239
C        0.0542153305   -2.2390787788    1.4210785885
C        1.9131635937   -0.9355747498    0.5972085817
C        0.3322713725   -1.8125111612    2.7252487167
C        2.1920726018   -0.5146259493    1.9020058801
C        1.6007645524   -0.1429756875    6.4679960753
C        2.9573386793   -0.0755559576    5.9978079241
C        1.3975460795   -0.9268846980    2.9888052762
C        0.8285750224   -0.3507885334    5.3626327906
C       -0.6643652449   -0.3104450103    5.3607007548
C       -2.8701186429    0.2232646280    4.3843841520
C       -0.8167525787    1.2631393047    3.4199774292
N        2.9788771708   -0.2351048755    4.6995558417
N        1.6935603540   -0.4650112989    4.2922380453
N       -1.4145078652    0.3166084887    4.3576169663
O       -1.2704062996   -0.7547579636    6.3405667141
H        0.6244801571   -2.1241845967   -0.6551018013
H       -0.7692185847   -2.9208858855    1.2391562545
H        2.5326887517   -0.5940877894   -0.2247967375
H       -0.2794977905   -2.1935859442    3.5341399945
H        3.0296231280    0.1521397257    2.0771084866
H        1.2553936307    0.0023090776    7.4849828219
H        3.8270185939    0.1080655452    6.6181192191
H       -3.2841526079    0.9508045747    5.0894194410
H       -3.1866474902   -0.7821535941    4.6813995895
H       -3.2824638765    0.4150135587    3.3886716096
H       -0.6563438142    0.7928463775    2.4450626446
H        0.1339601777    1.6540150575    3.7953211653
H       -1.4786323153    2.1243471764    3.2841284518
29   

C        0.8725948398   -1.7710528369    0.3557303637
C        0.0923360595   -2.2267092342    1.4209209660
C        1.9336727491   -0.8967356956    0.5981182971
C        0.3648551756   -1.7978454849    2.7256755854
C        2.2073227488   -0.4740561327    1.9033998546
C        1.6356173869   -0.2557846206    6.4841452478
C        2.9904917059   -0.1839413410    6.0114161910
C        1.4186957328   -0.8992380146    2.9891123466
C        0.8486586548   -0.3790486702    5.3747629033
C       -0.6385502552   -0.2458099821    5.4150934510
C       -2.8662899659    0.2415853350    4.4764444931
C       -0.8440242070    1.1834827714    3.3704619943
N        3.0021768792   -0.2589978526    4.7060865639
N        1.7112774910   -0.4421551600    4.2940416128
N       -1.4114073443    0.2893440582    4.3758534368
O       -1.2151247553   -0.4913273187    6.4788148774
H        0.6614381384   -2.1015720184   -0.6553250838
H       -0.7221295893   -2.9188653048    1.2378301643
H        2.5485415527   -0.5459144178   -0.2234845729
H       -0.2420360781   -2.1827230926    3.5365947663
H        3.0364608626    0.2025907032    2.0808782787
H        1.2998998122   -0.1506119846    7.5095280014
H        3.8661487600   -0.0531616427    6.6366870957
H       -3.2268057949    1.0289920964    5.1458416937
H       -3.1922391099   -0.7305344942    4.8612904017
H       -3.3216923892    0.3738689521    3.4898698713
H       -0.7365574921    0.6706833230    2.4100178736
H        0.1269369579    1.5773578392    3.6854180753
H       -1.4997596408    2.0481307299    3.2266687186
29   

C        0.9088575520   -1.7442911688    0.3592122754
C        0.1298797303   -2.2120112004    1.4204016362
C        1.9546595710   -0.8529155537    0.6067909104
C        0.3886983441   -1.7784229851    2.7265181859
C        2.2147137021   -0.4257721856    1.9133775864
C        1.6306140850   -0.3521094627    6.4976157496
C        2.9881995107   -0.2888814715    6.0329059443
C        1.4270075760   -0.8636123657    2.9942656967
C        0.8396798440   -0.3864030081    5.3829921666
C       -0.6360253400   -0.1487654662    5.4518281987
C       -2.8832945812    0.2755072920    4.5415779229
C       -0.8960633432    1.1202841688    3.3142290919
N        3.0022360836   -0.2828275956    4.7260812475
N        1.7089684218   -0.4093213094    4.3016038114
N       -1.4325973772    0.2814113762    4.3820103823
O       -1.1724074236   -0.1844767379    6.5623258979
H        0.7087653516   -2.0785695528   -0.6528654996
H       -0.6727477315   -2.9166876526    1.2329334351
H        2.5687075168   -0.4930693549   -0.2115376617
H       -0.2165024629   -2.1684772970    3.5364212027
H        3.0330513208    0.2623466499    2.0969495029
H        1.2980905164   -0.2806801854    7.5271018533
H        3.8645979992   -0.2168208187    6.6666026625
H       -3.2027363947    1.1301068542    5.1465240563
H       -3.2101289945   -0.6483178903    5.0306004004
H       -3.3752302702    0.3236997503    3.5649244150
H       -0.8294956024    0.5627924568    2.3754477439
H        0.0879132162    1.5212304009    3.5746081357
H       -1.5503277645    1.9829603714    3.1527653710
