16   

C        0.5835530322    0.8867059792    1.7731429530
C        0.3344248191    0.9003438155    3.1258243870
C       -0.2610893676    0.1632357468    0.9623554639
C       -4.2782735479   -1.9971502674    4.4797689375
C       -4.3309924125   -2.6059301224    3.2689068885
C       -1.4934568340   -0.4679937987    2.7986909337
C       -2.6556103790   -1.2100371894    3.3143732217
N       -0.6923707103    0.2317340676    3.6338208923
N       -1.2902884055   -0.5056209028    1.4705701510
N       -3.2196027328   -1.1199490757    4.4892672797
O       -3.3168738671   -2.1251998772    2.5131284215
H        1.4201589899    1.4312799919    1.3593068159
H        0.9823969601    1.4630426302    3.7882225628
H       -0.0863612686    0.1381449106   -0.1071897777
H       -4.9602491322   -2.1724526540    5.3035666728
H       -5.0579888255   -3.3470984120    2.9599879487
16   

C        0.5779209680    0.8955901492    1.7741236088
C        0.3873382228    0.8314876803    3.1350282462
C       -0.3155476789    0.2382498563    0.9590643104
C       -4.3332487248   -1.9259441590    4.4425685142
C       -4.2549065370   -2.6873757033    3.3224353286
C       -1.4777479449   -0.4832503314    2.8063988359
C       -2.6427222414   -1.2214117697    3.3261236023
N       -0.6297657290    0.1509907226    3.6470008508
N       -1.3356500983   -0.4417875513    1.4708379040
N       -3.3131256816   -1.0040693353    4.4248001171
O       -3.1949212621   -2.2602707780    2.5977582318
H        1.4065857907    1.4499021602    1.3572468147
H        1.0740294026    1.3420802268    3.8006268116
H       -0.1878164110    0.2761326205   -0.1167325197
H       -5.0801116711   -2.0258845837    5.2214648869
H       -4.9244180437   -3.4954145856    3.0538841595
16   

C        0.5647723506    0.8994387114    1.7805777369
C        0.4333204158    0.7555664272    3.1426660726
C       -0.3807412119    0.3146708717    0.9684843809
C       -4.3980491684   -1.8609458883    4.3988950456
C       -4.1905823602   -2.7575120563    3.4013766068
C       -1.4752862876   -0.4932138506    2.8191821012
C       -2.6448301174   -1.2267187641    3.3449546727
N       -0.5769307145    0.0677143163    3.6588296923
N       -1.3944189507   -0.3722256736    1.4839204559
N       -3.4176458492   -0.8981300261    4.3419975164
O       -3.0873180775   -2.3761380530    2.7165410579
H        1.3877707549    1.4598286063    1.3605997327
H        1.1615840977    1.2087346581    3.8056438162
H       -0.3000938730    0.4168530216   -0.1076891887
H       -5.2073396036   -1.8956491369    5.1188438308
H       -4.8021027070   -3.6259504390    3.1888718150
16   

C        0.5594685418    0.9070925318    1.7764765273
C        0.4816148171    0.6759652760    3.1309730906
C       -0.4402773701    0.4096315703    0.9706461912
C       -4.4684553779   -1.7987560661    4.3146764291
C       -4.1283377005   -2.8073899659    3.4721092255
C       -1.4813653195   -0.4822925105    2.8107191904
C       -2.6595605159   -1.2108311084    3.3375966994
N       -0.5296213417   -0.0116124170    3.6461534596
N       -1.4549736009   -0.2768829486    1.4846615471
N       -3.5330299148   -0.7959078995    4.2082981269
O       -2.9854635879   -2.4569224195    2.8372812226
H        1.3830994178    1.4673867439    1.3575977937
H        1.2535607738    1.0592983778    3.7885623404
H       -0.4019101291    0.5813964345   -0.0989927926
H       -5.3382992746   -1.7842275414    4.9609357020
H       -4.6767325858   -3.7307519570    3.3307699654
16   

C        0.5685585758    0.9024960029    1.7832549461
C        0.5310360493    0.5741578473    3.1194793122
C       -0.4846025917    0.5138838459    0.9852718385
C       -4.5417927188   -1.7494448487    4.2169435645
C       -4.0634043839   -2.8438132492    3.5711483725
C       -1.4997784989   -0.4566916257    2.7973529361
C       -2.6907725131   -1.1803801207    3.3168223428
N       -0.4935801784   -0.1009195908    3.6252179480
N       -1.5121980661   -0.1604925895    1.4896705408
N       -3.6616811886   -0.7073330203    4.0382544482
O       -2.8887160174   -2.5072608419    2.9889040442
H        1.4028538601    1.4527379146    1.3722161812
H        1.3464511259    0.8692042269    3.7701059168
H       -0.4776292909    0.7619188671   -0.0699721345
H       -5.4679751189   -1.7039658952    4.7778501948
H       -4.5391824494   -3.8159760487    3.5280298483
16   

C        0.5729516265    0.8983403607    1.7921319772
C        0.5548584307    0.4512957744    3.0937148200
C       -0.5247833038    0.6455571685    0.9998023935
C       -4.6327492680   -1.7127985217    4.0829996963
C       -4.0183437254   -2.8520994005    3.6729577308
C       -1.5489509433   -0.4156586591    2.7548189642
C       -2.7533230178   -1.1393395868    3.2498830875
N       -0.4948982317   -0.2045092894    3.5727950376
N       -1.5764881397   -0.0104606281    1.4779384327
N       -3.8145575981   -0.6419060840    3.8064434467
O       -2.8208266715   -2.5140991775    3.1401743863
H        1.4273667540    1.4331915226    1.4026796991
H        1.4067677150    0.6348613538    3.7385585931
H       -0.5328126655    0.9856002434   -0.0294764497
H       -5.6083506917   -1.6570309120    4.5516090486
H       -4.4165950578   -3.8558933852    3.7573835133
16   

C        0.5783777863    0.9009229436    1.7988120291
C        0.5800994584    0.3316503630    3.0516666420
C       -0.5534027162    0.7716530525    1.0251033684
C       -4.6897698817   -1.7238211286    3.9343196316
C       -3.9617016005   -2.8581855691    3.7716345445
C       -1.5753462498   -0.4000753966    2.7110917457
C       -2.7829038375   -1.1348424342    3.1739509294
N       -0.4841106873   -0.3200192681    3.5038144913
N       -1.6187545650    0.1188600123    1.4763408526
N       -3.9230281567   -0.6454708796    3.5578152902
O       -2.7442766643   -2.5101296886    3.2932883819
H        1.4442946775    1.4328664217    1.4314139942
H        1.4598726173    0.4137267780    3.6797860610
H       -0.5769859931    1.2066807940    0.0324813635
H       -5.7073153273   -1.6761582786    4.3042231642
H       -4.2959000233   -3.8655571210    3.9880635937
16   

C        0.5786343925    0.9159482803    1.8043341501
C        0.6126025687    0.2448818140    3.0051722600
C       -0.5852094604    0.8795683691    1.0693350028
C       -4.7183795434   -1.7400899696    3.8168770962
C       -3.9175659596   -2.8336482128    3.8925628503
C       -1.5766016481   -0.3981200293    2.6974939077
C       -2.7800939182   -1.1407983584    3.1415150940
N       -0.4517832300   -0.4139245236    3.4464728868
N       -1.6504791918    0.2192979022    1.5091575262
N       -3.9783566284   -0.6785839134    3.3504301465
O       -2.6802937990   -2.4777332285    3.4748037880
H        1.4446615804    1.4540425121    1.4462781239
H        1.5183547513    0.2515868981    3.6008564163
H       -0.6344177204    1.3947434699    0.1168268425
H       -5.7677966081   -1.7080625765    4.0855581781
H       -4.2158460957   -3.8187360379    4.2301283606
16   

C        0.5721952775    0.9272287624    1.8048548196
C        0.6423172684    0.1711931842    2.9524110894
C       -0.6216457447    0.9643256468    1.1197600422
C       -4.7340818412   -1.7785981087    3.7100790176
C       -3.8925220721   -2.8015160558    4.0062977452
C       -1.5707774573   -0.4111713810    2.6943552372
C       -2.7686437239   -1.1575242146    3.1312680206
N       -0.4159727940   -0.4988836609    3.3914319554
N       -1.6808212062    0.2929535143    1.5568374322
N       -4.0049188901   -0.7459769222    3.1683711019
O       -2.6394767465   -2.4302732989    3.6541373491
H        1.4334222690    1.4744234532    1.4490215640
H        1.5720078154    0.1194596236    3.5076316018
H       -0.6999676132    1.5476022677    0.2094042638
H       -5.8047048002   -1.7748191376    3.8781128944
H       -4.1739691960   -3.7492067894    4.4489990203
16   

C        0.5623834473    0.9396925728    1.8048646320
C        0.6651114135    0.1107842911    2.8983311176
C       -0.6577889133    1.0409996279    1.1749205703
C       -4.7429299490   -1.8252828252    3.6139475549
C       -3.8859661540   -2.7515795533    4.1132381383
C       -1.5667023552   -0.4218526282    2.6951361807
C       -2.7608623401   -1.1667580728    3.1327682215
N       -0.3865865826   -0.5690892562    3.3381515549
N       -1.7105248848    0.3603973664    1.6127078023
N       -4.0153890222   -0.8292402137    3.0061071347
O       -2.6241829603   -2.3553350073    3.8255953446
H        1.4185252091    1.4943973554    1.4483932435
H        1.6155072422    0.0089940582    3.4098584507
H       -0.7626649096    1.6836936189    0.3082974300
H       -5.8235929397   -1.8629685051    3.6862127788
H       -4.1629719335   -3.6508910074    4.6497246500
16   

C        0.5524581250    0.9576467739    1.8121452337
C        0.6801924694    0.0637254434    2.8502862102
C       -0.6891516135    1.1199548262    1.2395823911
C       -4.7451377632   -1.8743466587    3.5345353626
C       -3.8935371477   -2.6793495919    4.2185529853
C       -1.5674453144   -0.4204457477    2.7012357553
C       -2.7603092496   -1.1609466298    3.1439190763
N       -0.3673422305   -0.6221827520    3.2906620836
N       -1.7378423245    0.4339711890    1.6783088960
N       -4.0140596502   -0.9205851970    2.8664543822
O       -2.6314751874   -2.2473443028    3.9898903126
H        1.4054894453    1.5165389812    1.4547616873
H        1.6472073134   -0.0850992672    3.3172007634
H       -0.8147181182    1.8163987745    0.4184330601
H       -5.8247740768   -1.9672005113    3.5192594588
H       -4.1743683662   -3.5209049638    4.8400247630
16   

C        0.5490481118    0.9715129727    1.8276902374
C        0.6933539324    0.0150050274    2.8061478860
C       -0.7084557675    1.1943942869    1.3131709888
C       -4.7365160404   -1.9344111919    3.4596920199
C       -3.9122961061   -2.5985522220    4.3085191338
C       -1.5672838730   -0.4194497466    2.7059281953
C       -2.7615353951   -1.1545346662    3.1522033422
N       -0.3528689512   -0.6752278060    3.2428788700
N       -1.7560094260    0.5048648835    1.7489051560
N       -3.9947168180   -1.0285273564    2.7389717164
O       -2.6571335904   -2.1235782547    4.1335106066
H        1.4012457117    1.5331042206    1.4725563033
H        1.6725742758   -0.1803404457    3.2283365424
H       -0.8478369038    1.9427733833    0.5414268136
H       -5.8045159618   -2.0925011685    3.3656120774
H       -4.2069767740   -3.3739431160    5.0051117350
16   

C        0.5479139885    0.9806542677    1.8428951381
C        0.7019444080   -0.0365442758    2.7565429042
C       -0.7207756123    1.2637267568    1.3889370250
C       -4.7180210589   -2.0062214561    3.3915216856
C       -3.9401946760   -2.5117075150    4.3817796228
C       -1.5694809895   -0.4189194107    2.7038512655
C       -2.7662633005   -1.1489628187    3.1532201611
N       -0.3452547606   -0.7293527510    3.1868106174
N       -1.7694755096    0.5722733125    1.8189647141
N       -3.9608223167   -1.1526407893    2.6243712614
O       -2.6995949280   -1.9866640109    4.2515490414
H        1.4010384917    1.5436251813    1.4921959471
H        1.6897287838   -0.2783045554    3.1321878863
H       -0.8682437019    2.0623464015    0.6709209708
H       -5.7641844143   -2.2390445433    3.2308818696
H       -4.2564022732   -3.2136964499    5.1437069035
16   

C        0.6387285001    0.8369685597    1.8289043637
C       -0.3408349495    1.4524153270    2.5739070173
C        0.4989011240   -0.5034792890    1.5467785977
C       -3.9498818325   -2.8844850600    3.8682213036
C       -4.6558450437   -1.7254786177    3.8643629107
C       -1.4726472766   -0.5480637769    2.7248364727
C       -2.6255460079   -1.3481765063    3.1755755822
N       -1.3906140319    0.7699795366    3.0143553869
N       -0.5514015026   -1.1873322576    1.9853474193
N       -2.6694849395   -2.6259683864    3.4385339312
O       -3.8382032600   -0.7365203151    3.4339318596
H        1.4941175563    1.3926849870    1.4722006117
H       -0.2577333307    2.5080743365    2.8061847027
H        1.2548649622   -1.0095863152    0.9573173711
H       -4.3321178692   -3.8541097616    4.1652042857
H       -5.6927194496   -1.6110421119    4.1560937811
16   

C        0.6291903985    0.8432513778    1.8202976188
C       -0.3059355019    1.4278013892    2.6432928227
C        0.4505685289   -0.4741945026    1.4618418302
C       -3.9277809537   -2.8648364970    3.9618422922
C       -4.6829287034   -1.7582476010    3.7437100908
C       -1.4661305941   -0.5597737231    2.7231230822
C       -2.6216733901   -1.3634341186    3.1721693703
N       -1.3491736786    0.7369871316    3.0862068041
N       -0.5936414797   -1.1661988809    1.9027220242
N       -2.6276872697   -2.5930315791    3.6050361616
O       -3.8768754093   -0.7902360273    3.2485181285
H        1.4795954480    1.4054398504    1.4618190934
H       -0.1927672103    2.4655739579    2.9356866197
H        1.1701862941   -0.9549662998    0.8090760498
H       -4.2897645976   -3.8065789170    4.3575339944
H       -5.7451508725   -1.6650689589    3.9342781246
16   

C        0.6220955777    0.8579813657    1.8183250898
C       -0.2565640897    1.4045662628    2.7253527014
C        0.3958440061   -0.4293650372    1.3851632446
C       -3.9083708548   -2.8208493965    4.0776054443
C       -4.6917290388   -1.8007421575    3.6432882997
C       -1.4537984945   -0.5619593934    2.7370103695
C       -2.6089975001   -1.3690837869    3.1965672664
N       -1.2909173394    0.7056831766    3.1763136168
N       -0.6398043041   -1.1291633807    1.8345128499
N       -2.5951895841   -2.5240685446    3.7956881570
O       -3.8899203531   -0.8638086655    3.0853460747
H        1.4653720305    1.4264357419    1.4529523879
H       -0.1057650855    2.4185557198    3.0779949497
H        1.0701368854   -0.8795039292    0.6655781400
H       -4.2603494478   -3.7193759323    4.5708119204
H       -5.7700380517   -1.7450885864    3.7297286120
16   

C        0.6093497866    0.8595986692    1.8087594951
C       -0.1966116993    1.3679641300    2.8015881971
C        0.3156177262   -0.3878234890    1.3048528303
C       -3.9107441988   -2.7632072831    4.1851138360
C       -4.7009432442   -1.8718596128    3.5336401817
C       -1.4582469152   -0.5563153344    2.7487684390
C       -2.6115783175   -1.3634286152    3.2290920036
N       -1.2267235867    0.6707997469    3.2647136014
N       -0.7156806128   -1.0860516851    1.7670537892
N       -2.5938726319   -2.4188595949    3.9857099661
O       -3.8989705916   -0.9695012146    2.9215366751
H        1.4489819445    1.4266119588    1.4328992142
H        0.0087225952    2.3498989740    3.2125786617
H        0.9325565515   -0.8074019754    0.5184406497
H       -4.2610793111   -3.6057509394    4.7698228185
H       -5.7838334351   -1.8803037690    3.5090414401
16   

C        0.6067749195    0.8532068544    1.8029942463
C       -0.1030395592    1.3290784336    2.8818838390
C        0.2133474410   -0.3392851012    1.2374109577
C       -3.9162741445   -2.6687278378    4.3136649780
C       -4.6906457436   -1.9550884675    3.4565170654
C       -1.4743504222   -0.5152003559    2.7788121827
C       -2.6236319271   -1.3123750311    3.2916249820
N       -1.1385598213    0.6542793566    3.3655478018
N       -0.8227560545   -1.0161177907    1.7205709239
N       -2.6128503108   -2.2452491045    4.1933172265
O       -3.8919226531   -1.0850126492    2.7953371328
H        1.4504953730    1.4023267213    1.4100983257
H        0.1839292403    2.2664045204    3.3448502896
H        0.7553467202   -0.7331080881    0.3852085697
H       -4.2682949280   -3.4449534599    4.9830363591
H       -5.7603835313   -2.0629657151    3.3247682418
16   

C        0.6080917583    0.8434698580    1.7979051157
C       -0.0053585265    1.2833663271    2.9489277557
C        0.1045611189   -0.2780719104    1.1769961170
C       -3.9503979992   -2.5419396762    4.4111970993
C       -4.6735093717   -2.0361032932    3.3793105365
C       -1.5082699164   -0.4512970737    2.7972532127
C       -2.6578079717   -1.2296652904    3.3307606956
N       -1.0561258196    0.6433922503    3.4465676930
N       -0.9461702170   -0.9213656854    1.6742781813
N       -2.6771100467   -2.0238054795    4.3582639729
O       -3.8735048801   -1.2008369706    2.6761095173
H        1.4640442223    1.3646553418    1.3935829231
H        0.3717776786    2.1628537040    3.4583778777
H        0.5716696587   -0.6438118802    0.2697179138
H       -4.3160901213   -3.2427322473    5.1525864018
H       -5.7091380409   -2.2624266806    3.1566550266
16   

C        0.6142320176    0.8340281800    1.7941070079
C        0.0740884880    1.2197155052    2.9997736688
C        0.0274322516   -0.2144079533    1.1212253856
C       -3.9972027037   -2.4274899495    4.4664132181
C       -4.6381610023   -2.1271499044    3.3080045883
C       -1.5277878163   -0.4203437647    2.7957815768
C       -2.6806488808   -1.1826799398    3.3308197095
N       -0.9870910343    0.5987773601    3.4988790731
N       -1.0335638144   -0.8391441317    1.6203392914
N       -2.7588060165   -1.8288773053    4.4575632802
O       -3.8218649606   -1.3409587466    2.5680318915
H        1.4786347509    1.3399203124    1.3883510535
H        0.5185638202    2.0399773463    3.5519336621
H        0.4369448582   -0.5378474094    0.1710732501
H       -4.3946341802   -3.0432620923    5.2647636477
H       -5.6290841136   -2.4600777599    3.0242061875
16   

C        0.6078624108    0.8419506322    1.7944521847
C        0.1303489040    1.1598356537    3.0451298787
C       -0.0417135648   -0.1376848957    1.0776461117
C       -4.0519364887   -2.3226848421    4.5103540031
C       -4.5952617781   -2.2175449943    3.2711369154
C       -1.5379093742   -0.4096308674    2.7990505095
C       -2.6924606036   -1.1631347926    3.3296527631
N       -0.9309989365    0.5401698553    3.5448579594
N       -1.1030646304   -0.7609637122    1.5777469089
N       -2.8478532445   -1.6583059102    4.5254558056
O       -3.7513527801   -1.4901402529    2.5028034918
H        1.4724028636    1.3469050507    1.3878374000
H        0.6248619493    1.9248977395    3.6328421970
H        0.3178201049   -0.4076248032    0.0912573634
H       -4.4928066949   -2.8489317773    5.3489116818
H       -5.5388156558   -2.6429811775    2.9517452461
16   

C        0.6097844701    0.8530767970    1.7843769495
C        0.1882086670    1.0971737167    3.0709160111
C       -0.0903131964   -0.0622657486    1.0315719467
C       -4.1019796181   -2.2345023410    4.5170244856
C       -4.5324477136   -2.3170690652    3.2330876356
C       -1.5265763238   -0.4181013507    2.7906759977
C       -2.6826881491   -1.1680852169    3.3132557480
N       -0.8674961826    0.4681798279    3.5704621622
N       -1.1464673258   -0.6942013396    1.5317398107
N       -2.9323388767   -1.5121183562    4.5473881972
O       -3.6505807031   -1.6523163573    2.4510654908
H        1.4697435338    1.3656346502    1.3775744263
H        0.7225155822    1.8110826041    3.6874557131
H        0.2240820178   -0.2734367819    0.0158694116
H       -4.5972553632   -2.6701145677    5.3769173948
H       -5.4253732841   -2.8270235111    2.8926135146
16   

C        0.6035092393    0.8600802668    1.7795687674
C        0.2377597524    1.0293171055    3.0947053102
C       -0.1437684948    0.0067035281    1.0001263945
C       -4.1593314171   -2.1558463735    4.5180608526
C       -4.4684536665   -2.4225251530    3.2246525691
C       -1.5155532864   -0.4385121097    2.7915777259
C       -2.6734916508   -1.1861795937    3.3086164109
N       -0.8090287264    0.3873823086    3.5962649967
N       -1.1915707643   -0.6373323437    1.5023516696
N       -3.0253022578   -1.3791905543    4.5518199329
O       -3.5440766928   -1.8220590078    2.4399827700
H        1.4562128439    1.3831764947    1.3709153321
H        0.8091290048    1.6942215317    3.7324423043
H        0.1253648330   -0.1443451642   -0.0390261589
H       -4.7144824531   -2.5003618654    5.3826883625
H       -5.3081062039   -3.0133842423    2.8794652526
16   

C        0.5898081279    0.8762615604    1.7727203933
C        0.2840120298    0.9680419099    3.1105954861
C       -0.2076047678    0.0878749129    0.9748307224
C       -4.2211153923   -2.0703377184    4.5082959515
C       -4.4054235147   -2.5124790972    3.2395693676
C       -1.5081915876   -0.4497870830    2.7943051359
C       -2.6678672084   -1.1944533766    3.3104140411
N       -0.7525631427    0.3131525739    3.6165125441
N       -1.2458837770   -0.5681688463    1.4812459901
N       -3.1237759062   -1.2424826400    4.5340625255
O       -3.4373307721   -1.9737802055    2.4629310388
H        1.4342987703    1.4097741400    1.3604946387
H        0.8948015758    1.5817908834    3.7629128667
H        0.0129490308   -0.0005466799   -0.0828191847
H       -4.8379543949   -2.3277226981    5.3613639473
H       -5.1902335169   -3.1801752953    2.9055973902
