24   
Generated by ForceBalance from scan.xyz: Frame 1 of 24
C       -0.5653862273    1.2642665287   -0.0486750869
C        0.5635715259    0.6605188954    0.3739303750
C        1.5239331323    1.4391078584    1.2314323659
C       -1.5466332169    0.5791154547   -0.9566513348
C       -0.2731559391   -1.4207521847   -0.4773081235
C        3.6267353397    1.6372824488    2.3874169188
C        3.5996801707    0.4668383883    0.2409789030
N        0.8921958352   -0.6570094359   -0.0218197457
N       -0.9519380399   -0.6469917131   -1.5076575105
N        2.8139297761    0.9411364631    1.3892049274
O        1.1567470494    2.4617990752    1.8123676603
H       -0.7494817461    2.2866217657    0.2605365864
H       -2.4876797781    0.3945139315   -0.4042636949
H       -1.7997381050    1.2437547498   -1.7921928718
H        0.0734360513   -2.3639732665   -0.9097960347
H       -0.9370896349   -1.6494448995    0.3823744524
H        4.4896159492    1.0096621435    2.6292219942
H        3.0378540981    1.8119906005    3.2876703205
H        3.9836697401    2.6084627615    2.0187245760
H        4.2123660427    1.2878287273   -0.1577176064
H        2.9510763093    0.0950253246   -0.5486987576
H        4.2709303841   -0.3394023536    0.5568429398
H        1.3867748143   -1.1488544432    0.7183654347
H       -1.6655335313   -1.2189970027   -1.9506244439
24   
Generated by ForceBalance from scan.xyz: Frame 2 of 24
C       -0.5226005682    1.2425449347   -0.0861434379
C        0.5506660577    0.6066449144    0.4227074343
C        1.4836639374    1.3522963927    1.3368038258
C       -1.4691072676    0.5689798842   -1.0400259229
C       -0.3205191380   -1.4669792247   -0.4070501611
C        3.6523728911    1.6227916352    2.3587698002
C        3.5326851983    0.5422494341    0.1589696392
N        0.8437611481   -0.7366878973    0.0991048189
N       -0.8930353745   -0.7012367002   -1.5068665020
N        2.8105790643    0.9546035150    1.3676301430
O        1.0593535571    2.2477287168    2.0704236607
H       -0.6915998367    2.2773013924    0.1892211484
H       -2.4536257406    0.4442167172   -0.5506233902
H       -1.6327309392    1.2118962041   -1.9140586624
H        0.0104137430   -2.4393385596   -0.7836373221
H       -1.0497190961   -1.6346759928    0.4125871729
H        4.5502055409    1.0182476646    2.5182619435
H        3.1068397286    1.7259406152    3.2963355886
H        3.9535847999    2.6255423831    2.0261784679
H        4.0750842466    1.3983979754   -0.2662831311
H        2.8467643040    0.1472308688   -0.5866001236
H        4.2622327145   -0.2357111524    0.4096730851
H        1.2889359508   -1.2207632791    0.8739596285
H       -1.6006020370   -1.2579334760   -1.9781236823
24   
Generated by ForceBalance from scan.xyz: Frame 3 of 24
C       -0.4707143453    1.2295792145   -0.1189299801
C        0.5351287807    0.5561018168    0.4694374941
C        1.4516438287    1.2601362917    1.4344762790
C       -1.3879137725    0.5739033205   -1.1150786311
C       -0.3821843931   -1.4975158333   -0.3605786836
C        3.6751757789    1.6119003047    2.3232403590
C        3.4521769504    0.6243303960    0.0787939261
N        0.7783466581   -0.8100112868    0.2099143187
N       -0.8388378017   -0.7315993101   -1.5137285518
N        2.7995314149    0.9826635012    1.3388210168
O        0.9954407656    2.0015302817    2.3081198512
H       -0.6086414886    2.2787245875    0.1177833171
H       -2.4051203978    0.5020602507   -0.6858325641
H       -1.4686936100    1.1980926909   -2.0137590277
H       -0.0737551292   -2.4928869750   -0.6936954728
H       -1.1729136396   -1.6107204040    0.4094167676
H        4.5853671617    1.0123002707    2.4213368735
H        3.1642627992    1.6687593785    3.2837230200
H        3.9548203118    2.6308061913    2.0217562733
H        3.9298470416    1.5085113164   -0.3658905888
H        2.7332024118    0.2120891250   -0.6251395712
H        4.2268891097   -0.1282321603    0.2631352794
H        1.1486954943   -1.2911343479    1.0244647641
H       -1.5361436958   -1.2669060266   -2.0235458176
24   
Generated by ForceBalance from scan.xyz: Frame 4 of 24
C       -0.3340787642    1.2212166568   -0.0884028491
C        0.5973904712    0.5102105026    0.5713560688
C        1.5252271129    1.1715821667    1.5594084122
C       -1.2409722524    0.5814114796   -1.1062757558
C       -0.3882013367   -1.5169983312   -0.2459197969
C        3.8033242764    1.6351311167    2.2714419689
C        3.4331146878    0.7171293090    0.0099049128
N        0.7736027556   -0.8744890383    0.3732151711
N       -0.7374804562   -0.7602141595   -1.4418867309
N        2.8717252339    1.0446881786    1.3174847801
O        1.0793556222    1.7413016975    2.5588715580
H       -0.4194320615    2.2862495003    0.0985466165
H       -2.2789681941    0.5690813433   -0.7239266669
H       -1.2499489147    1.1801588294   -2.0255713273
H       -0.1149056525   -2.5359773025   -0.5355942184
H       -1.2255078537   -1.5671866738    0.4799673385
H        4.6942305284    1.0026022502    2.3459029197
H        3.3207641452    1.7128452942    3.2447148221
H        4.1138190029    2.6400108866    1.9539820243
H        3.8630318253    1.6152867041   -0.4541661126
H        2.6698636662    0.3056899051   -0.6463399047
H        4.2301872583   -0.0267268411    0.1222338068
H        1.0674989247   -1.3488623991    1.2221042031
H       -1.4320689788   -1.2733089307   -1.9776075601
24   
Generated by ForceBalance from scan.xyz: Frame 5 of 24
C       -0.2910393488    1.2264003001   -0.1509402884
C        0.5423535814    0.4744974475    0.5876943028
C        1.4425935155    1.0764774920    1.6407896329
C       -1.1590741793    0.6167267417   -1.2215482180
C       -0.4798551953   -1.5120216702   -0.2830278684
C        3.7058825867    1.6964550633    2.3094337554
C        3.3304173392    0.8548917090    0.0155210260
N        0.6595581958   -0.9197631946    0.4234904522
N       -0.6967408759   -0.7512781962   -1.5076782277
N        2.7729607340    1.1603662814    1.3272448307
O        0.9821644344    1.4307930642    2.7300846279
H       -0.3211622733    2.3002528678    0.0015231619
H       -2.2203436747    0.6562586025   -0.9121126975
H       -1.0764389679    1.2015903921   -2.1459788490
H       -0.2339294081   -2.5454561273   -0.5446276984
H       -1.3726852280   -1.5150999352    0.3748391412
H        4.5469041961    1.0056229884    2.4431838877
H        3.1854145860    1.8297424250    3.2567096401
H        4.1023655700    2.6648841000    1.9777238944
H        3.7646604563    1.7595841807   -0.4296562427
H        2.5628293046    0.4657568934   -0.6494318859
H        4.1234099285    0.1030347519    0.1094411062
H        0.8461105617   -1.3911485839    1.3043492734
H       -1.3726124238   -1.2360781642   -2.0916379221
24   
Generated by ForceBalance from scan.xyz: Frame 6 of 24
C       -0.1794749993    1.2316144927   -0.1902614681
C        0.5522816298    0.4229041400    0.5941232054
C        1.4628698054    0.9444369718    1.6808367798
C       -1.0665852953    0.6757290035   -1.2754464036
C       -0.5989648151   -1.4874406789   -0.2842785782
C        3.6802646572    1.7365544294    2.3173784961
C        3.2994189601    0.9967369423   -0.0123619716
N        0.5570680834   -0.9771255633    0.4585257479
N       -0.7101263234   -0.7305375429   -1.5256218419
N        2.7513681375    1.2237535314    1.3189080069
O        1.0346027847    1.0868141815    2.8307007552
H       -0.1110245414    2.3078238667   -0.0682667435
H       -2.1295482947    0.8070045666   -0.9990293530
H       -0.9098056763    1.2341024131   -2.2066892730
H       -0.4269892382   -2.5408425135   -0.5244966305
H       -1.5122010506   -1.4101780217    0.3400892836
H        4.4894810249    1.0168877538    2.4955423746
H        3.1403896827    1.9089450875    3.2472917394
H        4.1236630974    2.6774419624    1.9697877581
H        3.6172765178    1.9460307271   -0.4620091032
H        2.5591658175    0.5302003331   -0.6586772113
H        4.1733750325    0.3368842331    0.0527548087
H        0.6637273538   -1.4398719106    1.3575412564
H       -1.4037566440   -1.1674337207   -2.1263566060
24   
Generated by ForceBalance from scan.xyz: Frame 7 of 24
C       -0.0348024155    1.2224540632   -0.2038000753
C        0.6058837515    0.3650198598    0.6095581290
C        1.5434420256    0.8131615410    1.7034987796
C       -0.9763342638    0.7279929953   -1.2729297277
C       -0.7329976444   -1.4420310427   -0.2149577565
C        3.6845355336    1.7779157028    2.3468722820
C        3.3219723569    1.1541833085   -0.0181128238
N        0.4682066654   -1.0294209141    0.5154659498
N       -0.7692383313   -0.7145179422   -1.4786807675
N        2.7700371686    1.2820796002    1.3255549463
O        1.1720612201    0.7613147259    2.8814887559
H        0.1481673004    2.2888088754   -0.1175778853
H       -2.0194418648    0.9786727816   -1.0032747019
H       -0.7630297198    1.2381406157   -2.2206287953
H       -0.6686832499   -2.5138050879   -0.4247283612
H       -1.6333756991   -1.2552028909    0.4050506446
H        4.4887283341    1.0549149633    2.5366568293
H        3.1318770133    1.9424686303    3.2706437119
H        4.1348232392    2.7187164613    2.0109063985
H        3.5419655235    2.1426275657   -0.4401763502
H        2.6213060725    0.6405707482   -0.6728293093
H        4.2561084115    0.5797032221    0.0191622982
H        0.5273398827   -1.4674206535    1.4315352032
H       -1.5062227317   -1.0950504088   -2.0659745680
24   
Generated by ForceBalance from scan.xyz: Frame 8 of 24
C        0.1636188455    1.1174238695   -0.2332787797
C        0.7567213743    0.2566022718    0.6147046717
C        1.7321722618    0.6823427529    1.6804015370
C       -0.8580431644    0.6447260153   -1.2359177284
C       -0.7703552281   -1.4658226978   -0.0388470899
C        3.7664199804    1.8447727558    2.3244248159
C        3.4119701296    1.3205223249   -0.0618804502
N        0.4925131938   -1.1199295279    0.6146648935
N       -0.7981485038   -0.8209632769   -1.3478233759
N        2.8710986089    1.3322379226    1.2932155746
O        1.4479138240    0.4733786721    2.8664909325
H        0.4292404101    2.1694171513   -0.2119191269
H       -1.8608046122    1.0149565699   -0.9505111988
H       -0.6346361181    1.0686992516   -2.2232209529
H       -0.8124752778   -2.5500723605   -0.1780115338
H       -1.6227877404   -1.1571999138    0.6004583431
H        4.6129244879    1.1641553528    2.4860118493
H        3.2167827645    1.9473994170    3.2588150396
H        4.1571590331    2.8196144653    2.0133687597
H        3.5190889637    2.3428454726   -0.4447225416
H        2.7595774666    0.7625393579   -0.7297035388
H        4.4029403232    0.8487029310   -0.0589003529
H        0.5614376038   -1.5004833097    1.5555706936
H       -1.5946894895   -1.1647784745   -1.8771127361
24   
Generated by ForceBalance from scan.xyz: Frame 9 of 24
C        0.2621726694    1.0399786885   -0.3337040063
C        0.7942941743    0.1715959400    0.5497278587
C        1.7845463329    0.5591953379    1.6139188715
C       -0.8058061024    0.6106116040   -1.3062203745
C       -0.9083192445   -1.4204939569    0.0210208472
C        3.7108681008    1.8390157969    2.3459720461
C        3.3939777676    1.4804945799   -0.0737820220
N        0.3964612129   -1.1677687956    0.6274483651
N       -0.9031563397   -0.8563302343   -1.3260070222
N        2.8514517063    1.3456733562    1.2746456106
O        1.5726753823    0.1933326314    2.7781529287
H        0.6014345583    2.0700061506   -0.3580668074
H       -1.7614107463    1.1044728445   -1.0468793841
H       -0.5431593380    0.9468035202   -2.3177791889
H       -1.0654346528   -2.5007255999   -0.0494705564
H       -1.7099983855   -0.9867853878    0.6540418378
H        4.5833736461    1.1873119848    2.4876126943
H        3.1468304864    1.8704770999    3.2769032302
H        4.0623802573    2.8440582992    2.0902160817
H        3.3604897166    2.5246036536   -0.4089634746
H        2.8332267657    0.8681281561   -0.7763223708
H        4.4411370705    1.1523418149   -0.0785484832
H        0.4655714486   -1.5027428108    1.5858001520
H       -1.7448709487   -1.1448592204   -1.8169490472
24   
Generated by ForceBalance from scan.xyz: Frame 10 of 24
C        0.3733061049    0.9447175997   -0.3941115083
C        0.8691989193    0.0916738350    0.5288933241
C        1.8772197939    0.4674955574    1.5808858598
C       -0.7387245725    0.5352391935   -1.3241860077
C       -0.9722832551   -1.3836673441    0.1427680122
C        3.7090405669    1.8280844447    2.3851974129
C        3.4014752532    1.6172158665   -0.0500936781
N        0.3620997606   -1.1978726697    0.6982819981
N       -0.9593965304   -0.9151430243   -1.2410693987
N        2.8626428738    1.3730299550    1.2857415950
O        1.7663912967   -0.0343766185    2.7085851454
H        0.7557014174    1.9558612641   -0.4705349543
H       -1.6443693301    1.1261971796   -1.0885467388
H       -0.4670901655    0.7793161897   -2.3597935461
H       -1.2190738922   -2.4492103036    0.1531164759
H       -1.7194404219   -0.8417632192    0.7598469582
H        4.5887511481    1.1818645309    2.5072257667
H        3.1405939714    1.8138935210    3.3140046234
H        4.0473310932    2.8474841488    2.1743299618
H        3.2680067488    2.6648400355   -0.3474446534
H        2.9165898759    0.9778785663   -0.7844654524
H        4.4762136209    1.3959859867   -0.0509705668
H        0.4630248319   -1.4977891373    1.6649605120
H       -1.8356157553   -1.1623889864   -1.6925727615
24   
Generated by ForceBalance from scan.xyz: Frame 11 of 24
C        0.4510952720    0.8589777809   -0.4941540076
C        0.9112457098    0.0260376992    0.4688982998
C        1.9394109239    0.3808451097    1.5114207950
C       -0.6903826131    0.4693024481   -1.3965062100
C       -1.0527787340   -1.3154671234    0.2037310865
C        3.6904917753    1.7812493274    2.4079319046
C        3.3604455198    1.7647024495   -0.0323705667
N        0.3015050358   -1.2019926460    0.7185738881
N       -1.0342781716   -0.9467581856   -1.2108433324
N        2.8462545055    1.3859410430    1.2827775265
O        1.9386489514   -0.2541581726    2.5762169747
H        0.8723054635    1.8471167453   -0.6252019823
H       -1.5418931192    1.1511934585   -1.2090260857
H       -0.4007653852    0.6147745707   -2.4460132014
H       -1.3858955814   -2.3531797596    0.2953029279
H       -1.7397785038   -0.6705118633    0.7918225314
H        4.5892398060    1.1536647045    2.4774675881
H        3.1325248212    1.6832479590    3.3381452654
H        3.9953354312    2.8231852141    2.2703846415
H        3.0900600762    2.7960909495   -0.2916204328
H        2.9851763958    1.0948474165   -0.8035585501
H        4.4546320841    1.6929481861   -0.0196930575
H        0.4393126646   -1.4920688080    1.6829231025
H       -1.9409570468   -1.1429423666   -1.6260949062
24   
Generated by ForceBalance from scan.xyz: Frame 12 of 24
C        0.5454276288    0.7507135114   -0.6010685689
C        0.9538934336   -0.0206939428    0.4376296436
C        2.0205366897    0.3049394845    1.4564972443
C       -0.6282966888    0.3644056758   -1.4645105134
C       -1.1276367210   -1.2110313490    0.3041250335
C        3.7386176982    1.6838198882    2.4351238447
C        3.2886331951    1.9432964854    0.0227971198
N        0.2337707767   -1.1556070116    0.7952473967
N       -1.0980623890   -0.9887655946   -1.1411475411
N        2.8649209014    1.3775867987    1.3025866854
O        2.1246653086   -0.4397804835    2.4431407386
H        1.0209125788    1.6914144671   -0.8330607394
H       -1.4153896637    1.1348337822   -1.3527454153
H       -0.3299132046    0.3775706312   -2.5216579317
H       -1.5413327525   -2.2036135798    0.5036211218
H       -1.7545236505   -0.4562461169    0.8256691474
H        4.6561924760    1.0807496332    2.4134802567
H        3.2176346812    1.4758597037    3.3686994586
H        4.0063833346    2.7436361630    2.3945549398
H        2.8042803287    2.9056286570   -0.1860645229
H        3.0864264982    1.2540628426   -0.7964662554
H        4.3698437680    2.1104377976    0.0584344919
H        0.4114088068   -1.4489755701    1.7501227447
H       -2.0260049032   -1.1368100466   -1.5287950148
24   
Generated by ForceBalance from scan.xyz: Frame 13 of 24
C        0.8833297180    0.5389599957   -0.6552126048
C        0.9097584525    0.2860574384    0.6754731253
C        2.1048905462    0.4530629003    1.5801136107
C       -0.1892255353   -0.0477521281   -1.5390204501
C       -1.2631773607   -0.7633365948    0.4877565752
C        4.3155012113    1.2918853718    2.0824429214
C        2.9305721928    2.5555411350    0.4839487392
N       -0.1279671115   -0.3936210564    1.3070508014
N       -0.8315493411   -1.1784058354   -0.8541486492
N        3.1109901537    1.3301446889    1.2570971064
O        2.1582302384   -0.2372509251    2.6070543357
H        1.6854926749    1.0791476398   -1.1391602487
H       -0.9101575102    0.7358834636   -1.8430042780
H        0.2755085807   -0.4224250549   -2.4589498645
H       -1.7925072453   -1.5894346878    0.9688641526
H       -1.9491208192    0.1024919539    0.4432804337
H        5.1668683527    1.6244243790    1.4803731920
H        4.4888431761    0.2744345948    2.4299654749
H        4.2243234003    1.9455898010    2.9605564094
H        1.8757546933    2.7377089625    0.2851773748
H        3.4744417022    2.5204992616   -0.4687893528
H        3.3162974998    3.4021856415    1.0641264215
H        0.2014224354   -1.0542964348    2.0023416952
H       -1.6445142399   -1.4802582600   -1.3869837387
24   
Generated by ForceBalance from scan.xyz: Frame 14 of 24
C        0.9467992603    0.4186146894   -0.7031368160
C        0.9511232026    0.2225589343    0.6341303995
C        2.1611559364    0.3669378195    1.5172742123
C       -0.1575611341   -0.1323941957   -1.5702100896
C       -1.3027489046   -0.6148044851    0.4876521157
C        4.3261176290    1.3255091566    2.0278881912
C        2.8011968990    2.6006961100    0.5716614039
N       -0.1422757083   -0.3260517206    1.3089877850
N       -0.9074314019   -1.1509268591   -0.8220932603
N        3.0874251717    1.3441212166    1.2557664009
O        2.3074322175   -0.4429251178    2.4420687848
H        1.7897766761    0.8899676772   -1.1944858892
H       -0.8004987534    0.6887043495   -1.9426324053
H        0.2871002505   -0.6100238154   -2.4516560274
H       -1.9297780927   -1.3456003722    1.0039288811
H       -1.8806631751    0.3215693004    0.3859301090
H        5.1367076079    1.7265332405    1.4108391595
H        4.5577737986    0.3020684030    2.3191400840
H        4.2406504529    1.9346270951    2.9379833749
H        1.7457261781    2.6687698203    0.3158240204
H        3.3965282737    2.7024479146   -0.3447235723
H        3.0502081056    3.4387819195    1.2346549533
H        0.1438891954   -1.0443935699    1.9674367887
H       -1.7408017416   -1.4142152718   -1.3435531133
24   
Generated by ForceBalance from scan.xyz: Frame 15 of 24
C        1.0302509812    0.2868065573   -0.7582588081
C        1.0312674614    0.1366857259    0.5817427391
C        2.2574305897    0.2582687243    1.4441232181
C       -0.1176388835   -0.2109459333   -1.6006730103
C       -1.2899212996   -0.4719554082    0.4834728609
C        4.3537267670    1.3419057165    2.0128056995
C        2.7106343304    2.5996346921    0.6730534211
N       -0.1018706154   -0.2755722777    1.2970648927
N       -0.9601514649   -1.1088201341   -0.7983879034
N        3.0964959269    1.3276710458    1.2724786308
O        2.4973590552   -0.6518936649    2.2471732873
H        1.9016253578    0.6901286082   -1.2636208322
H       -0.6804075420    0.6428434364   -2.0255792226
H        0.2821377556   -0.7799609390   -2.4488459705
H       -1.9948026005   -1.1021620555    1.0309540405
H       -1.7559508991    0.5193133206    0.3392663657
H        5.1338610220    1.7922156899    1.3897946899
H        4.6311687646    0.3212745541    2.2717387790
H        4.2631980498    1.9258722214    2.9386315691
H        1.6703027655    2.5742112245    0.3560356144
H        3.3393968484    2.8324163788   -0.1956312917
H        2.8325719674    3.4048251447    1.4090040107
H        0.1211528357   -1.0346163369    1.9356686054
H       -1.8183214360   -1.3184606883   -1.3035556138
24   
Generated by ForceBalance from scan.xyz: Frame 16 of 24
C        1.0780429458    0.1537755500   -0.8367304813
C        1.0902957799    0.0597069192    0.5055315142
C        2.3387490393    0.1581812290    1.3406767982
C       -0.1224565003   -0.2775784883   -1.6416537154
C       -1.2800986896   -0.3067791895    0.4673906798
C        4.3449942458    1.3592616532    2.0097467812
C        2.5938746269    2.5828311897    0.7760364883
N       -0.0654517282   -0.2028933676    1.2626962066
N       -1.0396022108   -1.0389760092   -0.7818089415
N        3.0820331067    1.3064104602    1.2819484596
O        2.6758889284   -0.8240829976    2.0115199263
H        1.9707744721    0.4708609379   -1.3674183981
H       -0.6038544900    0.6014799299   -2.1124552161
H        0.2085562547   -0.9323467961   -2.4569403889
H       -2.0433759055   -0.8262155015    1.0516998003
H       -1.6326670781    0.7230035600    0.2788413427
H        5.0918076168    1.8849801799    1.4047835331
H        4.6827735553    0.3445217230    2.2146451899
H        4.2292771056    1.8916531971    2.9633035577
H        1.5797082293    2.4799448138    0.3963152712
H        3.2370412370    2.9516990554   -0.0327017945
H        2.5948776501    3.3278577629    1.5822728010
H        0.0837149124   -0.9784149507    1.9041599674
H       -1.9226828346   -1.1887290996   -1.2647169007
24   
Generated by ForceBalance from scan.xyz: Frame 17 of 24
C        1.1551635295    0.0050772840   -0.9008659452
C        1.2061771978   -0.0042587318    0.4414424750
C        2.4897199671    0.0856591881    1.2286670509
C       -0.1039036129   -0.3678837551   -1.6430826679
C       -1.1873334324   -0.1490876186    0.4934830588
C        4.3737100251    1.4053347715    2.0286733099
C        2.5058956803    2.5627351217    0.9024107293
N        0.0569163519   -0.1177305528    1.2513642886
N       -1.0598195610   -0.9793682419   -0.7089299707
N        3.1137305180    1.3013277098    1.3024714888
O        2.9405758024   -0.9359865549    1.7568533046
H        2.0503165222    0.2222284103   -1.4763645227
H       -0.5177952441    0.5182539400   -2.1623288783
H        0.1398869345   -1.1046418425   -2.4181001941
H       -1.9795085491   -0.5502778588    1.1302914803
H       -1.4402158968    0.8978281306    0.2478319092
H        5.0832804692    2.0073127099    1.4499377620
H        4.7778991431    0.4061622550    2.1839770808
H        4.2245393363    1.8846337277    3.0053399657
H        1.5319373842    2.3890248761    0.4499168266
H        3.1434563586    3.0823488614    0.1764397776
H        2.3780536610    3.2142416936    1.7767082108
H        0.1482922021   -0.8856168421    1.9133305413
H       -1.9685075784   -1.0762727905   -1.1565151217
24   
Generated by ForceBalance from scan.xyz: Frame 18 of 24
C        1.1613238748   -0.1444779789   -0.9840470927
C        1.2612317145   -0.0472146695    0.3506390832
C        2.5810579282    0.0450680418    1.0808868911
C       -0.1461886653   -0.4766706557   -1.6583920337
C       -1.1320303347    0.0107079283    0.4813134642
C        4.3274213889    1.4408674195    2.0566242856
C        2.3747741236    2.5319695646    1.0094940292
N        0.1335388426   -0.0175343011    1.2036228181
N       -1.1212774898   -0.9194095668   -0.6519685434
N        3.0847823929    1.2973301903    1.3089773338
O        3.1457933313   -0.9871518958    1.4546248944
H        2.0478559921   -0.0390249410   -1.6025119638
H       -0.5011026467    0.3901586037   -2.2486649843
H        0.0151086278   -1.2982653731   -2.3669170993
H       -1.9378594458   -0.2611045098    1.1675706717
H       -1.2918177271    1.0552717874    0.1590426498
H        5.0149120709    2.1012297421    1.5153092353
H        4.7819522579    0.4588353958    2.1784989346
H        4.1360316784    1.8744464566    3.0471204055
H        1.4725029912    2.3235913463    0.4384521064
H        3.0156046501    3.2007687678    0.4218922054
H        2.0933702571    3.0488563812    1.9362129168
H        0.1772497835   -0.7613056558    1.8975736188
H       -2.0497592142   -0.9700667285   -1.0650986255
24   
Generated by ForceBalance from scan.xyz: Frame 19 of 24
C        1.1831390643   -0.2830458022   -1.0351820800
C        1.3283708612   -0.0800351267    0.2831999303
C        2.6825793926    0.0264942361    0.9474206146
C       -0.1574816835   -0.5954219116   -1.6496411448
C       -1.0547171940    0.1131427629    0.4673366826
C        4.3182538419    1.4340871752    2.0909880557
C        2.3051249158    2.4898212463    1.1227122951
N        0.2256671295    0.0643175537    1.1612096890
N       -1.1290660916   -0.8995957141   -0.5901598232
N        3.0785748557    1.2768725250    1.3424789211
O        3.3604047149   -0.9866916971    1.1418565748
H        2.0562180470   -0.2752274713   -1.6807426022
H       -0.4791900039    0.2390996314   -2.3019809429
H       -0.0581306861   -1.4792833784   -2.2914987086
H       -1.8566340201   -0.0568666675    1.1901018800
H       -1.1615895322    1.1382174140    0.0691477650
H        5.0050157148    2.1022485348    1.5568006068
H        4.7843454556    0.4570779144    2.2096705609
H        4.1145149341    1.8648348507    3.0798008318
H        1.4827447834    2.3003582799    0.4360807796
H        2.9509244566    3.2632608990    0.6892805967
H        1.8926251100    2.8695982387    2.0661267117
H        0.2446301926   -0.6412875978    1.8949341263
H       -2.0698366658   -0.9270808235   -0.9768387177
24   
Generated by ForceBalance from scan.xyz: Frame 20 of 24
C        1.3565322376   -0.3832575959   -1.0236423860
C        1.5110209859   -0.0723983829    0.2735759628
C        2.8831141389    0.1112131348    0.8796423121
C        0.0188603922   -0.7679177171   -1.5996932814
C       -0.8758747094    0.0739448656    0.4680311639
C        4.4216348237    1.5030126858    2.1566439986
C        2.3520484639    2.5223385221    1.2838206508
N        0.4105884925    0.1039490798    1.1504319728
N       -0.9376021111   -1.0148229263   -0.5121745536
N        3.1438975864    1.3161102005    1.4817571962
O        3.6976910643   -0.8163375132    0.8703464555
H        2.2262078184   -0.4116639336   -1.6726051035
H       -0.3251694079    0.0102696428   -2.3077940264
H        0.1335741228   -1.6931086379   -2.1775465007
H       -1.6677469676   -0.0597185611    1.2093291083
H       -1.0090899656    1.0644740061   -0.0032676415
H        5.1220988090    2.0710702039    1.5293895875
H        4.8579203947    0.5288134872    2.3723959175
H        4.2643224239    2.0558212119    3.0896818681
H        1.4740195066    2.3122958145    0.6786295073
H        2.9568774756    3.2870507125    0.7780796354
H        2.0185379934    2.9262165740    2.2472152246
H        0.4517730102   -0.5476020171    1.9312509881
H       -1.8805878944   -1.0898398251   -0.8870368622
24   
Generated by ForceBalance from scan.xyz: Frame 21 of 24
C       -0.0923283899    0.5615491490    0.8029189392
C        1.2057588728    0.4101298231    0.4873261585
C        2.2644390786    1.1339570470    1.2817625756
C       -1.1975887821    0.0287865303   -0.0682512915
C        0.5515839258   -1.1966246586   -1.1724509642
C        4.4565613629    1.1884001897    2.3058554341
C        3.4631712535   -1.0015870771    1.7823477401
N        1.6310827222   -0.4164764492   -0.5841634116
N       -0.6528752512   -0.3833209807   -1.3687829445
N        3.4140296018    0.4470601651    1.6031648571
O        2.1146075007    2.3249142941    1.5702844548
H       -0.3567768538    1.1312287110    1.6877031319
H       -1.7287424434   -0.7883501037    0.4565643269
H       -1.9321791328    0.8260827204   -0.2355839594
H        0.8835497180   -1.5910461482   -2.1361315212
H        0.3693206347   -2.0500535689   -0.4947820137
H        4.2828143396    1.2006450756    3.3908735359
H        4.4736207171    2.2185187655    1.9519996161
H        5.4223188761    0.7119554714    2.1104212608
H        3.4060083368   -1.2567359643    2.8501404744
H        4.4061203066   -1.3935497933    1.3851849073
H        2.6460248350   -1.4814992118    1.2511040076
H        2.1526686199    0.1134298890   -1.2786775795
H       -1.3492211229   -0.9152509658   -1.8860458101
24   
Generated by ForceBalance from scan.xyz: Frame 22 of 24
C       -0.1649588222    0.5932581757    0.6722434151
C        1.1394761991    0.3586140981    0.4373379877
C        2.1743083608    1.0792362928    1.2626124855
C       -1.2514708384    0.0649268905   -0.2225616807
C        0.4777106367   -1.3248463783   -1.1441247280
C        4.4068804376    1.2846013668    2.1514470995
C        3.5759900912   -0.9627767967    1.6291900942
N        1.5679688609   -0.5630823864   -0.5527018493
N       -0.6670791768   -0.4644299715   -1.4618789374
N        3.4053255874    0.4806643334    1.4546869192
O        1.9348004482    2.2105146512    1.6951487951
H       -0.4390222893    1.2267870121    1.5088867463
H       -1.8551661255   -0.6834374719    0.3258626351
H       -1.9295106308    0.8880442405   -0.4802111462
H        0.8356725348   -1.8038385124   -2.0589302432
H        0.2123946612   -2.1166140393   -0.4208943628
H        4.2557157675    1.2689075433    3.2397301917
H        4.3470884214    2.3194582887    1.8160877005
H        5.3981298038    0.8789362259    1.9271539358
H        3.6044144951   -1.2138273562    2.6993044392
H        4.5216105145   -1.2818077038    1.1769043750
H        2.7673333546   -1.5053905691    1.1484564968
H        2.1539862759   -0.1135307660   -1.2524314587
H       -1.3655796879   -0.9947066172   -1.9780750509
24   
Generated by ForceBalance from scan.xyz: Frame 23 of 24
C       -0.1750163232    0.6772046294    0.6617466337
C        1.1217869391    0.3453356131    0.5089160721
C        2.1446417033    1.0133686579    1.3920490474
C       -1.2465966843    0.2025008452   -0.2781428503
C        0.4145510810   -1.3502068368   -1.0425638875
C        4.3968954920    1.3194908160    2.1804932281
C        3.7143004857   -0.9403278224    1.5433349731
N        1.5279672549   -0.6479666741   -0.4211244648
N       -0.6391483733   -0.4197441965   -1.4615690831
N        3.4292358998    0.4958444742    1.4562221728
O        1.8489117084    2.0521185234    1.9901319308
H       -0.4460860773    1.3483810174    1.4691118239
H       -1.9373769898   -0.4741349242    0.2607396634
H       -1.8423876651    1.0650678326   -0.6022167666
H        0.7839090809   -1.8959200359   -1.9144831365
H        0.0486202324   -2.0854330625   -0.3041576837
H        4.2767578718    1.2285065568    3.2687489884
H        4.2660939074    2.3675749563    1.9124865834
H        5.4040934699    0.9914387799    1.9065499742
H        3.8305285886   -1.2363712172    2.5959484557
H        4.6504252246   -1.1648915120    1.0197864213
H        2.9155520699   -1.5187447476    1.0888994511
H        2.1771174228   -0.2704843520   -1.1081864129
H       -1.3477278383   -0.9170615396   -1.9965410157
24   
Generated by ForceBalance from scan.xyz: Frame 24 of 24
C       -0.1710244236    0.7301571334    0.5965584515
C        1.1042245176    0.2970928691    0.5409100342
C        2.1042574706    0.9249758844    1.4829106116
C       -1.2216558102    0.2967061519   -0.3850117594
C        0.3363601838   -1.4386663343   -0.9338906541
C        4.3444498761    1.3493197615    2.2447563190
C        3.8547011664   -0.8914447531    1.4088772623
N        1.4769265405   -0.7813416147   -0.3107451806
N       -0.6088066077   -0.4610200608   -1.4828523862
N        3.4293642569    0.5124680986    1.4671037612
O        1.7487609024    1.8587199194    2.2082778835
H       -0.4370912377    1.4509207930    1.3616578090
H       -2.0066498363   -0.2719371175    0.1496033704
H       -1.7091267886    1.1874751036   -0.8011102175
H        0.6982335360   -2.0839008675   -1.7384678700
H       -0.1257012338   -2.0755201273   -0.1597225576
H        4.2628616732    1.1508711897    3.3220633594
H        4.1201639092    2.4021775334    2.0761342955
H        5.3668953007    1.1335127659    1.9204591482
H        4.0879436340   -1.2497120392    2.4217662318
H        4.7611714136   -0.9822067103    0.7991502252
H        3.0745381612   -1.5139529070    0.9816633567
H        2.1566253398   -0.4810054091   -1.0075838008
H       -1.3270447013   -0.9360166280   -2.0252295424
