29   
Generated by ForceBalance from scan.xyz: Frame 1 of 11
C        1.6466487706   -1.2892499909   -0.1600029155
C        0.7718130314   -2.1010869543    0.5685997922
C        2.5577820778   -0.4699857691    0.5181207250
C        0.6059509940   -0.7533333979    6.2304498753
C        1.7589256358   -1.0795150685    6.9533219136
C        0.8108249335   -2.0956224715    1.9675792432
C        2.5976880351   -0.4681560179    1.9136634889
C        0.6196869631   -0.8526526817    4.8387927629
C        2.8973551334   -1.5222076343    6.2841388085
C        6.0868776463   -3.1344283873    4.1409909136
C        5.3961738757   -3.5445658887    3.0182329294
C        1.7274768372   -1.2847521293    2.6568482562
C        1.7651229494   -1.2750502405    4.1462188013
C        2.9167613240   -1.6421595610    4.8814720151
C        4.1392293945   -2.1943258355    4.2722999260
N        5.3008076711   -2.3160869285    4.9132281068
N        4.1738443702   -2.9149145439    3.0984054409
H        1.6182568052   -1.2925667877   -1.2464456254
H        0.0613883209   -2.7404042039    0.0507129211
H        3.2367900737    0.1685373287   -0.0410391263
H       -0.2902185477   -0.4145147160    6.7435600879
H        1.7666485825   -0.9997823136    8.0372874401
H        0.1373439162   -2.7343683792    2.5335320444
H        3.3104031824    0.1622780697    2.4382684155
H       -0.2596901096   -0.5697339878    4.2660039738
H        3.7914655574   -1.8029455050    6.8305787581
H        7.0977261782   -3.3892057182    4.4324434862
H        5.6714326425   -4.1618575904    2.1749367109
H        3.4100180962   -3.0077777201    2.4411484931
29   
Generated by ForceBalance from scan.xyz: Frame 2 of 11
C        1.6034410452   -1.2555216142   -0.1744150935
C        0.7394442691   -2.0705821016    0.5637378833
C        2.5191422030   -0.4343376229    0.4948061971
C        0.6204649856   -0.8241853880    6.2376584567
C        1.8041120757   -1.0870193699    6.9359460005
C        0.7932602683   -2.0670645615    1.9618652534
C        2.5742008950   -0.4338590352    1.8898113807
C        0.6129426287   -0.9072120210    4.8448197767
C        2.9567153993   -1.4529830487    6.2437289371
C        6.0485543675   -3.1647166796    4.2230428502
C        5.3463110616   -3.6350294060    3.1289811187
C        1.7149523342   -1.2536949164    2.6424340886
C        1.7710689832   -1.2493530614    4.1300449508
C        2.9559886064   -1.5561488195    4.8404681796
C        4.1897870550   -2.0423515141    4.1880346166
N        5.3239127031   -2.2026984158    4.8768415047
N        4.2121473551   -2.8576620429    3.0747669033
H        1.5630191298   -1.2579550082   -1.2604916816
H        0.0257975005   -2.7120528899    0.0529889061
H        3.1895918775    0.2075787907   -0.0707546056
H       -0.2848386909   -0.5470650294    6.7713327256
H        1.8261152818   -1.0195881387    8.0205811794
H        0.1290787748   -2.7102246998    2.5338104762
H        3.2886668243    0.2011741032    2.4062297380
H       -0.2924804672   -0.6715844575    4.2914466029
H        3.8737624395   -1.6890109505    6.7720013831
H        7.0229693434   -3.4790953642    4.5748444030
H        5.5967033884   -4.3425448918    2.3509612380
H        3.4446983617   -2.9806993255    2.4260072151
29   
Generated by ForceBalance from scan.xyz: Frame 3 of 11
C        1.5879709260   -1.2255461978   -0.1802756811
C        0.7487027446   -2.0637647778    0.5608306113
C        2.4885200054   -0.3851080326    0.4851710164
C        0.6435402196   -0.8983143437    6.2491232246
C        1.8496647749   -1.1037583497    6.9272558664
C        0.8118766093   -2.0644456804    1.9582205204
C        2.5530150027   -0.3882958213    1.8798995886
C        0.6214091697   -0.9659688611    4.8555069931
C        3.0119183819   -1.3988182796    6.2163864885
C        5.9802369130   -3.2027337131    4.3388354298
C        5.2676584310   -3.7065085237    3.2623857725
C        1.7186999392   -1.2310515807    2.6355035950
C        1.7869612375   -1.2337332381    4.1219621426
C        2.9967337326   -1.4859796688    4.8127086549
C        4.2399593424   -1.9083458527    4.1203492217
N        5.3362863695   -2.1206761554    4.8687484039
N        4.2564353159   -2.7989728051    3.0598997495
H        1.5398286727   -1.2251437428   -1.2660389118
H        0.0473347027   -2.7204601842    0.0523987255
H        3.1391094342    0.2750615902   -0.0825814576
H       -0.2678875693   -0.6782611154    6.7987287534
H        1.8836564066   -1.0486377599    8.0123186626
H        0.1680217039   -2.7263417908    2.5320388445
H        3.2538496183    0.2639616316    2.3933440505
H       -0.3033280294   -0.7744628799    4.3172861888
H        3.9454054486   -1.5934880302    6.7313198852
H        6.9023501298   -3.5808065756    4.7624139741
H        5.4906658745   -4.4882403324    2.5490736448
H        3.4874236894   -2.9267317384    2.4126309805
29   
Generated by ForceBalance from scan.xyz: Frame 4 of 11
C        1.5650712676   -1.1926274831   -0.2036506304
C        0.7578342441   -2.0598159320    0.5398784777
C        2.4492914317   -0.3330411434    0.4589042153
C        0.6843478363   -0.9842545565    6.2395618429
C        1.9087909329   -1.1352064551    6.8979438210
C        0.8379522769   -2.0691418141    1.9361175168
C        2.5304560179   -0.3446179697    1.8528417949
C        0.6472591063   -1.0358325391    4.8455963704
C        3.0765230724   -1.3619583498    6.1699750727
C        5.8967503829   -3.2353584594    4.4274565962
C        5.1553633197   -3.7664963724    3.3786353653
C        1.7287467668   -1.2162229987    2.6112110792
C        1.8163336302   -1.2322014823    4.0959815151
C        3.0483110537   -1.4339498696    4.7657818418
C        4.2976710315   -1.7923731571    4.0327396989
N        5.3639844780   -2.0489041859    4.8272333729
N        4.3001368852   -2.7548479260    3.0243809871
H        1.5046881078   -1.1850091864   -1.2887702232
H        0.0693320932   -2.7321209857    0.0342305657
H        3.0745457443    0.3495536513   -0.1107661549
H       -0.2295239249   -0.8189513671    6.8040774417
H        1.9552451698   -1.0919266187    7.9831033508
H        0.2200119048   -2.7538963652    2.5115557046
H        3.2176060263    0.3242623298    2.3631053157
H       -0.2929249123   -0.8856252984    4.3211117469
H        4.0229501043   -1.5153740859    6.6738170200
H        6.7594148870   -3.6687367691    4.9186096252
H        5.3310100832   -4.6233910798    2.7414420575
H        3.5132315776   -2.8708636067    2.3945702859
29   
Generated by ForceBalance from scan.xyz: Frame 5 of 11
C        1.5519514986   -1.1711570365   -0.2094200991
C        0.7839930878   -2.0716749579    0.5365463242
C        2.4098287184   -0.2833480257    0.4501253171
C        0.7326135730   -1.0469538817    6.2440083214
C        1.9726750431   -1.1381831022    6.8831359034
C        0.8774260394   -2.0863472105    1.9316478656
C        2.5040155462   -0.2997804215    1.8434865011
C        0.6793939670   -1.0948898141    4.8507090934
C        3.1423258037   -1.3056897264    6.1414876015
C        5.7720014825   -3.2558685662    4.5223127747
C        5.0186231574   -3.7776778083    3.4693673922
C        1.7427642898   -1.2052475661    2.6041915887
C        1.8481753851   -1.2280985984    4.0871958646
C        3.0994828083   -1.3767703104    4.7373947872
C        4.3458778338   -1.6776532722    3.9530713871
N        5.3650402178   -1.9957529283    4.8099760378
N        4.3512179917   -2.6863862232    2.9806304161
H        1.4812632359   -1.1598318867   -1.2938849940
H        0.1162658173   -2.7661745470    0.0330267409
H        3.0039738318    0.4253958016   -0.1209172567
H       -0.1801321418   -0.9301982211    6.8222869726
H        2.0326470799   -1.0958451797    7.9677088775
H        0.2915524547   -2.7976741677    2.5083447115
H        3.1694995348    0.3921263060    2.3514748307
H       -0.2735306388   -0.9891217837    4.3384419973
H        4.0981161569   -1.4129353831    6.6376560695
H        6.5513502430   -3.7494988103    5.0906242871
H        5.1432306405   -4.6856350535    2.8926173429
H        3.5802551097   -2.7661825640    2.3241196342
29   
Generated by ForceBalance from scan.xyz: Frame 6 of 11
C        1.3960302312   -1.4156428484   -0.1785403510
C        1.1190149407   -2.5358991272    0.6135789164
C        1.7919670455   -0.2201600797    0.4307196344
C        1.1411431913   -0.1184767824    6.1924797269
C        1.8963337783   -1.0582620555    6.9003077870
C        1.2427482604   -2.4637706299    2.0028504248
C        1.9138838329   -0.1481221987    1.8218349067
C        1.0935064926   -0.1923228824    4.8001006265
C        2.6193494670   -2.0411929551    6.2240748112
C        5.5857219126   -3.4318616443    4.6099645681
C        5.5891929221   -2.6309050522    3.4667571526
C        1.6469996625   -1.2698829594    2.6267596277
C        1.7859929335   -1.1945356901    4.1052723128
C        2.5963802006   -2.1130687386    4.8195637566
C        3.4713353433   -3.0968450461    4.0945000418
N        4.3130393476   -3.7089485748    4.9838826980
N        4.2899965521   -2.6797543283    3.0366075635
H        1.3023134501   -1.4733647982   -1.2597777002
H        0.8027400350   -3.4663927031    0.1492915793
H        2.0109936175    0.6546259804   -0.1763219352
H        0.5886620194    0.6558592327    6.7181338263
H        1.9389752895   -1.0192612555    7.9858304168
H        1.0249806058   -3.3348581185    2.6139472577
H        2.2369496459    0.7772667983    2.2920414166
H        0.4819154348    0.5092993180    4.2385521126
H        3.2330221218   -2.7461510185    6.7696627065
H        6.4386194021   -3.7792689748    5.1808485211
H        6.4018955397   -2.3263700071    2.8191917587
H        3.9249080527   -2.0509412739    2.3273145986
29   
Generated by ForceBalance from scan.xyz: Frame 7 of 11
C        1.4244191114   -1.4169344531   -0.1729986983
C        1.1786423351   -2.5428329811    0.6217612417
C        1.7759524455   -0.2067487554    0.4339859954
C        1.0603413771   -0.1117862864    6.1917476158
C        1.8594666623   -1.0054138788    6.9117622412
C        1.2896712423   -2.4610123054    2.0113214109
C        1.8845425135   -0.1250913096    1.8259634504
C        1.0242043084   -0.1967244179    4.7993714418
C        2.6331971824   -1.9542914658    6.2440464327
C        5.6300600341   -3.5543622885    4.5223827425
C        5.6452462763   -2.7591122618    3.3827783185
C        1.6486510970   -1.2518702612    2.6330481926
C        1.7718471221   -1.1647246837    4.1128743902
C        2.6185209769   -2.0370315654    4.8402255572
C        3.5462830946   -2.9874452104    4.1592890128
N        4.3597483832   -3.6763007722    4.9948016727
N        4.3206025993   -2.5944591240    3.0690327466
H        1.3407286364   -1.4820289921   -1.2546419474
H        0.8973143897   -3.4851848209    0.1589062279
H        1.9701532077    0.6725208150   -0.1750122803
H        0.4650570992    0.6363576420    6.7085426889
H        1.8940688002   -0.9555162554    7.9970901709
H        1.0980572772   -3.3368833000    2.6246019138
H        2.1716013400    0.8127424434    2.2949445240
H        0.3810613314    0.4698874268    4.2305246351
H        3.2817719179   -2.6264779945    6.7923399307
H        6.4728294940   -4.0107567549    5.0269991191
H        6.4368134216   -2.5247775200    2.6831074107
H        3.9786598415   -1.9357059176    2.3774037099
29   
Generated by ForceBalance from scan.xyz: Frame 8 of 11
C        1.4594290754   -1.4131107206   -0.1528720173
C        1.2454505610   -2.5445574525    0.6435397963
C        1.7658866417   -0.1902400840    0.4527573376
C        0.9678884560   -0.1195206263    6.2042483165
C        1.8039613714   -0.9669995180    6.9387515065
C        1.3433987365   -2.4557828513    2.0335005948
C        1.8610167169   -0.1018889567    1.8455561653
C        0.9539760487   -0.2103259390    4.8118489539
C        2.6331818415   -1.8743483895    6.2811954096
C        5.6435113483   -3.6561265552    4.4479942201
C        5.6529635714   -2.9013241302    3.2858892748
C        1.6570476172   -1.2335394746    2.6538822403
C        1.7609161351   -1.1372884544    4.1351720674
C        2.6397614696   -1.9625396154    4.8774922495
C        3.6212348940   -2.8710437015    4.2332687300
N        4.4083214395   -3.6144056638    5.0301654974
N        4.3424084329   -2.5337548067    3.1000177851
H        1.3857818084   -1.4840127020   -1.2348827534
H        0.9993335239   -3.4969981841    0.1812692427
H        1.9348902654    0.6935483722   -0.1572096124
H        0.3266760913    0.5973612077    6.7103245020
H        1.8218512477   -0.9122400492    8.0242275052
H        1.1780725491   -3.3362780432    2.6480117729
H        2.1123128993    0.8463393672    2.3141520827
H        0.2831883836    0.4198478253    4.2335442143
H        3.3102132978   -2.5126991767    6.8366566629
H        6.4662789071   -4.1997154474    4.8954545066
H        6.4044237410   -2.7597777337    2.5210856796
H        4.0205031951   -1.8810756633    2.3950053858
29   
Generated by ForceBalance from scan.xyz: Frame 9 of 11
C        1.4950996164   -1.4132791576   -0.1443752921
C        1.3078953467   -2.5473090247    0.6554443156
C        1.7657250893   -0.1805344434    0.4578987208
C        0.8923794649   -0.1364768915    6.2017863787
C        1.7642853892   -0.9346898754    6.9502785267
C        1.3972917468   -2.4504814344    2.0452748624
C        1.8519600854   -0.0839787124    1.8510263262
C        0.8997688608   -0.2314470653    4.8096701364
C        2.6483889227   -1.7967502764    6.3046448935
C        5.6372413894   -3.7473198605    4.3482819060
C        5.6255944894   -3.0182078728    3.1737381949
C        1.6753041390   -1.2178443706    2.6619276199
C        1.7652014475   -1.1131806319    4.1442061666
C        2.6761908292   -1.8880546453    4.9008618912
C        3.7084365060   -2.7519245988    4.2907483485
N        4.4664534750   -3.5624664332    5.0357426049
N        4.3685307687   -2.4617065062    3.1138717553
H        1.4283900450   -1.4901984107   -1.2264236950
H        1.0900158876   -3.5078358508    0.1957473878
H        1.9133623290    0.7052184661   -0.1547245337
H        0.2061132403    0.5452317857    6.6972586826
H        1.7648539793   -0.8762605430    8.0356733497
H        1.2553501344   -3.3329753437    2.6629123918
H        2.0743443225    0.8725916848    2.3173096554
H        0.2019899830    0.3590686506    4.2215661976
H        3.3514310954   -2.3995891223    6.8686111589
H        6.4289962867   -4.3770733683    4.7337367295
H        6.3262241283   -2.9463750373    2.3536305496
H        4.0463961062   -1.8088416057    2.4102549916
29   
Generated by ForceBalance from scan.xyz: Frame 10 of 11
C        1.5356680662   -1.4168048047   -0.1343507271
C        1.3694212113   -2.5509143182    0.6702605836
C        1.7795406360   -0.1762269373    0.4629038462
C        0.8249805294   -0.1627684633    6.1985509376
C        1.7348562052   -0.9034170917    6.9613785805
C        1.4530523179   -2.4452807675    2.0597774873
C        1.8598792457   -0.0713065372    1.8561054940
C        0.8550502239   -0.2629255137    4.8073015931
C        2.6764670596   -1.7120117029    6.3293791239
C        5.6165948608   -3.8151017508    4.2647036589
C        5.5683976948   -3.1242923829    3.0703402795
C        1.7042109513   -1.2044649821    2.6714422806
C        1.7817071872   -1.0910281767    4.1546235503
C        2.7268584527   -1.8080000026    4.9258532169
C        3.8095785188   -2.6224068294    4.3465626841
N        4.5379684392   -3.4889836714    5.0491611525
N        4.3999459699   -2.3961633574    3.1234823875
H        1.4734163930   -1.5000230474   -1.2161985666
H        1.1728952507   -3.5179208055    0.2145121154
H        1.9103914552    0.7095907063   -0.1534024273
H        0.0918325246    0.4773098275    6.6822563030
H        1.7179635841   -0.8415168661    8.0463993918
H        1.3300631904   -3.3276382497    2.6817684236
H        2.0600722019    0.8919053541    2.3187301623
H        0.1298503624    0.2814649864    4.2079791019
H        3.4056730503   -2.2729934683    6.9040978426
H        6.3685636118   -4.5185409598    4.5985189353
H        6.2075184451   -3.1236664194    2.1988752178
H        4.0615459145   -1.7616021549    2.4116195433
29   
Generated by ForceBalance from scan.xyz: Frame 11 of 11
C        1.6591357391   -1.3226294918   -0.1540673911
C        0.7732472651   -2.1231130790    0.5735858090
C        2.5729289069   -0.5076387870    0.5258504135
C        0.6011984289   -0.6560129586    6.2140393874
C        1.7181608666   -1.0524480143    6.9585844625
C        0.8030488098   -2.1114504678    1.9730486367
C        2.6036174740   -0.4992869716    1.9217059157
C        0.6267867193   -0.7733264247    4.8242588425
C        2.8317758576   -1.5803486552    6.3113091105
C        6.0895024913   -3.0675275714    4.0863678719
C        5.4247950487   -3.4113197869    2.9268843847
C        1.7224001671   -1.3053479204    2.6633015645
C        1.7493207558   -1.2846297465    4.1537701201
C        2.8644676613   -1.7166788800    4.9095679165
C        4.0648504979   -2.3421385556    4.3318886006
N        5.2434264160   -2.4127554218    4.9476456624
N        4.1362802646   -2.9537936226    3.1018472346
H        1.6373077329   -1.3311804841   -1.2406401515
H        0.0603436673   -2.7586028655    0.0544445026
H        3.2611707874    0.1220133569   -0.0320951460
H       -0.2763324617   -0.2491224132    6.7095467441
H        1.7160784070   -0.9596545201    8.0415297675
H        0.1199985049   -2.7407082425    2.5381195698
H        3.3195490120    0.1258053070    2.4484365251
H       -0.2230616789   -0.4390486476    4.2347641419
H        3.6987153870   -1.9103472689    6.8741335654
H        7.1247861785   -3.2532246180    4.3419070430
H        5.7347721660   -3.9290706384    2.0304877256
H        3.3875453142   -3.0115114607    2.4240521389
