29   

C        3.1035496182   -1.2030968108    1.7475705293
C        1.4094143577   -1.5964362442    0.0801022204
C        2.2017493828   -0.4164521265    2.4735293475
C        0.5139550067   -0.8075630317    0.8124702378
C        8.6198839896   -4.8922391611    2.0928952645
C        2.7327594007   -1.8046142647    0.5267251272
C        0.9008297862   -0.2086886531    2.0125517645
C        8.7125050221   -5.4066854046    0.8272830261
C        6.8303890017   -4.2771211793    0.5701294119
C        3.7024165726   -2.6399621917   -0.2168134320
C        9.8548954792   -6.2649958368    0.3804650929
C        3.4692370824   -3.0192585591   -1.6609711313
N        7.6922853247   -5.0439779873   -0.0420331406
N        4.7790732619   -3.0445971721    0.4268929876
N        5.7313935190   -3.8343937098   -0.1530657973
S        7.1883007321   -3.9127464227    2.2551143451
Cl      -0.2216723961    0.7730874810    2.9210346929
H        4.1037425713   -1.3357283419    2.1474641217
H        1.0390831675   -2.0530887666   -0.8288102382
H        2.5138338377    0.0377399569    3.4067079183
H       -0.4973293164   -0.6604228596    0.4515278158
H        9.3380631232   -5.0648477042    2.8840646918
H        9.5787550363   -7.3193246076    0.4681295657
H       10.0983057254   -6.0473161528   -0.6632949981
H       10.7387800966   -6.0742346698    0.9956404087
H        4.3787745940   -2.8489490068   -2.2441601387
H        3.2051099129   -4.0786449451   -1.7262216845
H        2.6817316546   -2.4232522553   -2.1245646535
H        5.6920569841   -4.1722184113   -1.1092321407
29   

C        3.1284952971   -1.0459908113    1.6552812826
C        1.3576945391   -1.7893401378    0.1977014627
C        2.2096946068   -0.2686615636    2.3701243155
C        0.4443880848   -1.0091684480    0.9171884880
C        8.6461430227   -4.8701766311    2.0732965838
C        2.7207557983   -1.8210723467    0.5526514399
C        0.8607744627   -0.2415817988    2.0077714965
C        8.7254222450   -5.3854153689    0.8070952321
C        6.8343394788   -4.2658332736    0.5729304632
C        3.7068963046   -2.6279424336   -0.1996191748
C        9.8255471149   -6.3019169081    0.3697769422
C        3.5191343883   -2.9059614776   -1.6734895488
N        7.6836970135   -5.0424241331   -0.0444748594
N        4.7652372920   -3.0595397920    0.4544349827
N        5.7283835209   -3.8245749579   -0.1403560584
S        7.2192562147   -3.8859452993    2.2483843980
Cl      -0.2829203808    0.7289161415    2.9018195447
H        4.1689883077   -1.0428034399    1.9642206722
H        0.9865825119   -2.3816141267   -0.6304197441
H        2.5450590855    0.3198822393    3.2160764394
H       -0.6012706342   -0.9991414166    0.6324406378
H        9.3650656995   -5.0540011324    2.8612490335
H        9.4317648822   -7.0530524339   -0.3207907165
H       10.6042053289   -5.7262858529   -0.1379237078
H       10.2625219466   -6.8121722007    1.2328087081
H        4.4213519715   -2.6238162078   -2.2239331522
H        3.3314138068   -3.9722442648   -1.8286437322
H        2.6870041517   -2.3325159310   -2.0883670009
H        5.6896742423   -4.1501181609   -1.1008370270
29   

C        3.1969415057   -0.8544876347    1.5023057106
C        1.4085632452   -1.9078045628    0.2737030984
C        2.2619441687   -0.0623809527    2.1791455936
C        0.4780706325   -1.1125809050    0.9535894643
C        8.6263773340   -4.9676055827    2.1600456478
C        2.7840038695   -1.7956411955    0.5432406672
C        0.8951406378   -0.1837849761    1.9117121811
C        8.7551843942   -5.4146520403    0.8722084957
C        6.8742067769   -4.2809588655    0.6247774221
C        3.7850856355   -2.6001014474   -0.1946948177
C        9.8717919817   -6.3085236747    0.4298145423
C        3.6586278056   -2.7858355416   -1.6899542826
N        7.7472775700   -5.0249611918    0.0003085379
N        4.8125517156   -3.0628703665    0.4843073154
N        5.7976010385   -3.8011919384   -0.1082150921
S        7.1934728936   -3.9914699991    2.3316717217
Cl      -0.2689345909    0.8059935934    2.7569677083
H        4.2528818812   -0.7408452739    1.7260611030
H        1.0531641678   -2.6220467003   -0.4605381024
H        2.5975481090    0.6541064169    2.9197461246
H       -0.5796215087   -1.2140637367    0.7401754096
H        9.3139454127   -5.1946078232    2.9645420705
H        9.5074708362   -7.0156898763   -0.3207513487
H       10.6731280056   -5.7073179752   -0.0081789234
H       10.2693350165   -6.8709381736    1.2793862655
H        4.5605442401   -2.4194142025   -2.1888038355
H        3.5319352551   -3.8467943044   -1.9234598669
H        2.8023959719   -2.2312943151   -2.0830979251
H        5.7993746832   -4.0747854100   -1.0855449531
29   

C        3.1945945422   -0.6967485437    1.3754722603
C        1.4329128430   -2.0557569393    0.4444382485
C        2.2396048353    0.0834491928    2.0382826535
C        0.4813810560   -1.2722743525    1.1087139337
C        8.5813588882   -5.0958121175    2.1797711236
C        2.8039912446   -1.7845038453    0.5790956423
C        0.8752822922   -0.1970398095    1.9117728214
C        8.7416838874   -5.4695584088    0.8722840070
C        6.8764266168   -4.3069197347    0.6404699323
C        3.8199422704   -2.5680245209   -0.1687465865
C        9.8625634871   -6.3475461599    0.4093532165
C        3.7329049996   -2.6503882328   -1.6765113982
N        7.7607960525   -5.0214181112   -0.0023469664
N        4.8242581485   -3.0710569339    0.5137605257
N        5.8233410994   -3.7781342869   -0.0929882019
S        7.1515341234   -4.1184235922    2.3689908138
Cl      -0.3142921667    0.7790068249    2.7372510020
H        4.2489013608   -0.4633632889    1.4831106515
H        1.1035273894   -2.8821205776   -0.1757148775
H        2.5566065358    0.9150253093    2.6567188820
H       -0.5737900570   -1.4956851006    1.0026791718
H        9.2449510930   -5.3748088635    2.9880322570
H        9.5132329386   -7.0064300621   -0.3906541649
H       10.6809073285   -5.7302091966    0.0290704526
H       10.2314079610   -6.9621959572    1.2353616182
H        4.6316508909   -2.2186358564   -2.1263259878
H        3.6472345628   -3.6951205731   -1.9884663289
H        2.8617783976   -2.0995778348   -2.0424482492
H        5.8517711601   -3.9945726765   -1.0841391182
29   

C        3.1355292131   -0.5266297060    1.1914526255
C        1.5006932017   -2.2121226495    0.6401358643
C        2.1465815876    0.2145302343    1.8494784258
C        0.5143797250   -1.4674457983    1.2982783264
C        8.5144710122   -5.2264858176    2.1985015143
C        2.8251535144   -1.7529678542    0.5870476221
C        0.8277571640   -0.2483108691    1.9086432946
C        8.7153214460   -5.5268624476    0.8777830827
C        6.8720233053   -4.3287075293    0.6509314429
C        3.8697234008   -2.5044761948   -0.1649324797
C        9.8415945863   -6.3914794351    0.4029090613
C        3.8223741245   -2.5064553167   -1.6770567680
N        7.7699290052   -5.0167480308   -0.0019834856
N        4.8397693966   -3.0598864083    0.5245016358
N        5.8509099406   -3.7456645428   -0.0866294391
S        7.0897464564   -4.2432501294    2.3956716783
Cl      -0.4051076164    0.6799258153    2.7256981069
H        4.1536093124   -0.1536807674    1.1532419205
H        1.2374740057   -3.1528886458    0.1692105679
H        2.4005141416    1.1576410743    2.3190947408
H       -0.5048801232   -1.8336436329    1.3374444378
H        9.1469333694   -5.5596451497    3.0111894973
H        9.5122529251   -6.9996735925   -0.4443236848
H       10.6789107929   -5.7641270961    0.0855229291
H       10.1757671002   -7.0564147111    1.2043600983
H        4.7269279326   -2.0414682386   -2.0794912266
H        3.7562114386   -3.5334256470   -2.0472583674
H        2.9519592595   -1.9466712848   -2.0314577832
H        5.9129297051   -3.9042681451   -1.0871412291
29   

C        3.0034815596   -0.3343971224    0.9185717896
C        1.6776435115   -2.3478872903    0.8599660001
C        1.9672035673    0.3257848055    1.5901137230
C        0.6432041224   -1.6842944096    1.5306910550
C        8.3997035451   -5.3778394218    2.2277010590
C        2.8677903795   -1.6776422547    0.5427311068
C        0.7772688670   -0.3415980894    1.8997443663
C        8.6546353576   -5.6114151897    0.9028104764
C        6.8638806516   -4.3391446219    0.6589578999
C        3.9649478917   -2.3725855586   -0.1962605202
C        9.7746815724   -6.4862642876    0.4318840923
C        3.9609854567   -2.3338121619   -1.7087062093
N        7.7697856546   -5.0209069262    0.0104661600
N        4.8802293807   -2.9973672113    0.5077720590
N        5.8994713849   -3.6813396338   -0.0919067481
S        6.9988377123   -4.3587812715    2.4139654343
Cl      -0.5155164576    0.4851456714    2.7330310657
H        3.9211998391    0.1968050216    0.6904355718
H        1.5592608369   -3.3903306415    0.5848868663
H        2.0834617424    1.3643944028    1.8769273830
H       -0.2725330742   -2.2120301544    1.7703058333
H        8.9814623859   -5.7765509401    3.0487048285
H        9.4621394756   -7.0462322003   -0.4540738503
H       10.6404613202   -5.8698514130    0.1752420929
H       10.0593061956   -7.1956997829    1.2140774583
H        4.8804552480   -1.8662669732   -2.0723712849
H        3.8967087329   -3.3497337719   -2.1086505154
H        3.1047889986   -1.7573818030   -2.0711125792
H        6.0066641707   -3.7859531082   -1.0956938475
29   

C        2.9266190872   -0.2049464314    0.7402586567
C        1.8909938898   -2.3438275410    1.1472008676
C        1.9100392678    0.4232367909    1.4702022891
C        0.8763294071   -1.7123767808    1.8763393741
C        8.1357930013   -5.7396619143    2.1602235549
C        2.9194927134   -1.5953817800    0.5557691179
C        0.8740194264   -0.3234361822    2.0410716153
C        8.5361218368   -5.7608976831    0.8509771805
C        6.7643797814   -4.4605386547    0.6168291007
C        4.0163370746   -2.2703719942   -0.1956486169
C        9.7646994071   -6.4807200011    0.3884201050
C        4.0553815740   -2.1532705588   -1.7033692952
N        7.7525280365   -5.0228024954   -0.0261091091
N        4.8574895889   -3.0114418451    0.4886448006
N        5.8799947989   -3.6835280740   -0.1186290895
S        6.6995920128   -4.7715834565    2.3483305779
Cl      -0.3926336543    0.4625896046    2.9504299103
H        3.7280405677    0.3903203954    0.3166402663
H        1.8874239916   -3.4235910771    1.0420981710
H        1.9234332304    1.4988109106    1.6022902251
H        0.0855954998   -2.3023767228    2.3247936567
H        8.6442728827   -6.2462623856    2.9703311618
H        9.4923529420   -7.4716653286    0.0152590778
H       10.2450885102   -5.9175336228   -0.4166912205
H       10.4749177034   -6.5910678830    1.2127728927
H        5.0062440922   -1.7152065491   -2.0196963126
H        3.9516208869   -3.1429242022   -2.1574650433
H        3.2387087297   -1.5167954305   -2.0562252894
H        6.0855866618   -3.6390374010   -1.1114849295
29   

C        2.7504928152   -0.1970145339    0.5370552073
C        2.0605864239   -2.3657431520    1.3334581904
C        1.7154596562    0.3975743770    1.2692190439
C        1.0273891600   -1.7671714574    2.0640859447
C        8.0294188100   -5.8618743113    2.1408785352
C        2.9241458514   -1.5903818988    0.5431104580
C        0.8423717399   -0.3813955217    2.0353435279
C        8.4921620533   -5.8096163859    0.8532296241
C        6.7413137293   -4.4825929587    0.6121123999
C        4.0504625404   -2.2175130858   -0.1945211894
C        9.7373510960   -6.5115606201    0.4079545016
C        4.1629668036   -2.0243869921   -1.6904131478
N        7.7559435031   -5.0145860540   -0.0150524373
N        4.8520469404   -3.0109659697    0.4805369543
N        5.8975444620   -3.6560360671   -0.1169196865
S        6.5912249375   -4.8944628227    2.3170993326
Cl      -0.4465381132    0.3635128515    2.9480366009
H        3.4246884749    0.4294678195   -0.0364584235
H        2.2005801216   -3.4407356528    1.3818228292
H        1.5879874318    1.4736481333    1.2513666696
H        0.3659585370   -2.3800321090    2.6652336463
H        8.4956360618   -6.4193842785    2.9429415263
H        9.4776651027   -7.4774986338   -0.0335504006
H       10.2579014006   -5.9073057248   -0.3404227756
H       10.4075197304   -6.6741854767    1.2568140042
H        5.1228788141   -1.5612502588   -1.9357816934
H        4.0954106144   -2.9911115904   -2.1977306799
H        3.3568072875   -1.3817270864   -2.0555697396
H        6.1519616999   -3.5526068779   -1.0939534892
29   

C        2.5840723532   -0.2594293576    0.3842318107
C        2.1942482184   -2.3597322347    1.5005114377
C        1.5297576999    0.3148048405    1.1051687382
C        1.1414795399   -1.7811024041    2.2188626068
C        7.9538336871   -5.9770890324    2.1176686222
C        2.9221799324   -1.6121161030    0.5576784838
C        0.7968750025   -0.4404410554    2.0254367080
C        8.4671568879   -5.8575278344    0.8538747125
C        6.7251310364   -4.5188470373    0.6135191125
C        4.0617295866   -2.2114743719   -0.1742817620
C        9.7297872344   -6.5361741240    0.4217693239
C        4.2462227872   -1.9359550012   -1.6495133009
N        7.7647216129   -5.0175377779    0.0000841603
N        4.8396507217   -3.0420066633    0.4859496771
N        5.9089027261   -3.6549767927   -0.1034419325
S        6.5082063760   -5.0195698380    2.2872895343
Cl      -0.5161067618    0.2800018799    2.9233364600
H        3.1445145257    0.3589138490   -0.3079298544
H        2.4517155132   -3.3991675447    1.6772535985
H        1.2776667683    1.3584376040    0.9574974743
H        0.5887521915   -2.3745367550    2.9377589302
H        8.3888053760   -6.5763445589    2.9070898164
H        9.4887395992   -7.4764252521   -0.0814543219
H       10.2796087506   -5.8931226067   -0.2713022596
H       10.3653647593   -6.7455107804    1.2868407991
H        5.1986206117   -1.4247405468   -1.8162804309
H        4.2476853523   -2.8769918352   -2.2072070905
H        3.4359112826   -1.3115843313   -2.0353786789
H        6.2025067078   -3.4980516559   -1.0621871169
29   

C        2.4325338196   -0.3423954475    0.2529355462
C        2.3247521993   -2.3078157734    1.6403793564
C        1.3612655183    0.2120848715    0.9646390455
C        1.2547404069   -1.7488623032    2.3483122413
C        7.8819729858   -6.0805048449    2.0832404414
C        2.9281775610   -1.6189496408    0.5693049311
C        0.7609122938   -0.4855621874    2.0156763381
C        8.4417422731   -5.9029663276    0.8462456508
C        6.7106584158   -4.5503646364    0.6049351354
C        4.0705077969   -2.2061535077   -0.1653726598
C        9.7187140113   -6.5641378629    0.4294666494
C        4.3228451297   -1.8549009390   -1.6136882773
N        7.7720202740   -5.0219737860    0.0076282148
N        4.8306781237   -3.0666682201    0.4792773507
N        5.9209442375   -3.6523158980   -0.0995924152
S        6.4317777399   -5.1284176910    2.2443250051
Cl      -0.5735363625    0.2112757632    2.9004729869
H        2.8795336249    0.2475921079   -0.5384151217
H        2.6875393373   -3.2895880351    1.9277513415
H        0.9919532874    1.1976758387    0.7062197151
H        0.8037966513   -2.2985222145    3.1662564816
H        8.2869610445   -6.7175369111    2.8589216866
H        9.4953480585   -7.4805778203   -0.1234020288
H       10.2931205226   -5.8919877346   -0.2143028752
H       10.3229934132   -6.8130497664    1.3064015509
H        5.2465462731   -1.2754569595   -1.6990489007
H        4.4248783432   -2.7685357734   -2.2065124272
H        3.4979605826   -1.2784908464   -2.0387322459
H        6.2502149345   -3.4487537144   -1.0377503275
29   

C        2.5516747244   -0.0660144021    0.8413084550
C        2.1134855024   -2.3680644540    1.3863078795
C        1.7248642458    0.3339871979    1.8990291023
C        1.2891261815   -1.9622127452    2.4414995183
C        5.7510063060   -7.3190758314   -1.1786915696
C        2.7611230709   -1.4265233467    0.5566655755
C        1.0851107588   -0.6076959291    2.7070391752
C        6.4006119838   -6.7057489685   -2.2164529988
C        5.2573745330   -4.9610214285   -1.4862464915
C        3.6282788696   -1.8676322497   -0.5591567609
C        7.3909843703   -7.4135981346   -3.0880193361
C        4.0616311173   -0.9102166669   -1.6450817028
N        6.1198796382   -5.3562634822   -2.3837321079
N        4.0199606762   -3.1259530592   -0.5634162350
N        4.8633385956   -3.6304371722   -1.5127868000
S        4.7125265840   -6.1913558711   -0.3508531877
Cl       0.0571627707   -0.1014356128    4.0247061388
H        3.0355309736    0.7173352730    0.2723777535
H        2.2431343839   -3.4318918174    1.2147929680
H        1.5794144331    1.3884643605    2.1028186268
H        0.8025956637   -2.7058078519    3.0618943928
H        5.8706160703   -8.3589553068   -0.9032713690
H        6.8980718966   -7.7571427268   -4.0014844102
H        8.2032462836   -6.7325001902   -3.3572866837
H        7.8136664228   -8.2750979173   -2.5633375733
H        5.1110394617   -0.6381316249   -1.5002895917
H        3.9552230534   -1.3832234426   -2.6255673735
H        3.4537532500   -0.0045947787   -1.6687901912
H        5.2900745179   -3.0799020746   -2.2508652852
29   

C        2.3237398333   -0.0866313973    0.6461110515
C        2.3095859712   -2.3330388350    1.5024690037
C        1.4352989570    0.2940095621    1.6608210202
C        1.4228728910   -1.9456657872    2.5124917495
C        5.6937220629   -7.3486252019   -1.1862346797
C        2.7842542972   -1.4107702184    0.5405130985
C        0.9767247627   -0.6281456861    2.6018121358
C        6.3688487652   -6.7427227285   -2.2119928483
C        5.3038113578   -4.9652924890   -1.4435166223
C        3.7223105480   -1.8444774327   -0.5209381216
C        7.3218659948   -7.4763269774   -3.1036597294
C        4.2523150168   -0.8930025920   -1.5680491953
N        6.1491590646   -5.3786228696   -2.3491232119
N        4.0927140162   -3.1098757244   -0.5242288560
N        4.9621874851   -3.6200886375   -1.4470849262
S        4.7068554025   -6.1939245862   -0.3327625394
Cl      -0.1301764245   -0.1429897122    3.8622322349
H        2.6198476332    0.7009910539   -0.0305638208
H        2.6257128203   -3.3709188219    1.4776084945
H        1.0940805740    1.3208693266    1.7225701910
H        1.0769563035   -2.6755213630    3.2351286702
H        5.7659888075   -8.3988220070   -0.9344780683
H        6.8061102924   -7.7880227430   -4.0159919560
H        8.1570339778   -6.8236997249   -3.3732955191
H        7.7159624313   -8.3607523615   -2.5951738169
H        5.3424032418   -0.8412243478   -1.4926092992
H        3.9954995802   -1.2687453331   -2.5628404513
H        3.8689064577    0.1214800793   -1.4963910077
H        5.4044171717   -3.0752677264   -2.1802722817
29   

C        2.0925954732   -0.1962426710    0.4886399674
C        2.4660840026   -2.2666189905    1.6558841095
C        1.1485215178    0.1703821768    1.4564821697
C        1.5218395229   -1.8948745066    2.6191624445
C        5.6649308206   -7.3363337834   -1.2459187684
C        2.7776713247   -1.4210588956    0.5685505681
C        0.8553805364   -0.6722901055    2.5301977271
C        6.3514904023   -6.7158383791   -2.2551930298
C        5.3426583824   -4.9353896996   -1.4206875961
C        3.7812420112   -1.8232405119   -0.4427294970
C        7.2730826609   -7.4474080377   -3.1808673850
C        4.3652058702   -0.8227846618   -1.4131727084
N        6.1721393907   -5.3418063603   -2.3439707970
N        4.1409075682   -3.0908014395   -0.4709179149
N        5.0337907865   -3.5827695260   -1.3807891356
S        4.7173183887   -6.1831023659   -0.3473765464
Cl      -0.3238544446   -0.2090559729    3.7318808263
H        2.2507357217    0.4943902371   -0.3295251185
H        2.9614243260   -3.2261436430    1.7649078219
H        0.6296408314    1.1183124887    1.3740226929
H        1.3028168093   -2.5620938957    3.4446211720
H        5.7063099237   -8.3964059714   -1.0313414772
H        6.7406464073   -7.7071278638   -4.0999187799
H        8.1281047747   -6.8138236139   -3.4329829255
H        7.6398666569   -8.3632487035   -2.7088965976
H        5.4492835007   -0.9525969994   -1.4781750948
H        3.9346160923   -0.9777236353   -2.4065851498
H        4.1938807381    0.2087721456   -1.1022946286
H        5.4804554363   -3.0277539409   -2.1035385890
29   

C        1.9062605249   -0.2971349334    0.3442880173
C        2.5575166806   -2.1525009823    1.7347213569
C        0.9396336521    0.0656741290    1.2906441556
C        1.5898498957   -1.7855811291    2.6767990061
C        5.6950339062   -7.3023657784   -1.2517376901
C        2.7426732884   -1.4071612947    0.5531882423
C        0.7740038240   -0.6719281872    2.4655274472
C        6.3763691274   -6.6718665016   -2.2583593237
C        5.3241313047   -4.9094300290   -1.4391523801
C        3.7547389855   -1.8085589353   -0.4487221090
C        7.2618246228   -7.4001851736   -3.2211907934
C        4.4070082073   -0.7809911037   -1.3451221020
N        6.1554585621   -5.3052210131   -2.3654041654
N        4.0862602697   -3.0818097402   -0.5018856673
N        4.9960591832   -3.5612793505   -1.4013915070
S        4.7279061889   -6.1629828472   -0.3562469428
Cl      -0.4338448359   -0.2158195026    3.6412263800
H        1.9802279256    0.2926301759   -0.5617135098
H        3.1716966882   -3.0264374412    1.9273157858
H        0.3038088474    0.9251442527    1.1128822046
H        1.4675429875   -2.3716807533    3.5801468318
H        5.7425232021   -8.3635092569   -1.0438303181
H        7.1818717187   -6.9493945318   -4.2144436693
H        8.3004977288   -7.3378450470   -2.8854919091
H        6.9693736734   -8.4519421274   -3.2875934031
H        5.4952945050   -0.8792540347   -1.2945972987
H        4.0877238578   -0.9356818624   -2.3797187623
H        4.1551894223    0.2375904225   -1.0410856994
H        5.4513733831   -2.9974257671   -2.1118531811
29   

C        1.7822378618   -0.4242069420    0.2297570962
C        2.6811494868   -2.0083719928    1.8082590821
C        0.7978320202   -0.0637345359    1.1582324872
C        1.6950693951   -1.6448026487    2.7327273497
C        5.5965510492   -7.3204354133   -1.3379871304
C        2.7515270176   -1.3907701377    0.5467547359
C        0.7470923776   -0.6670367666    2.4183269345
C        6.3394092663   -6.6762818922   -2.2909794368
C        5.2957336745   -4.9135816489   -1.4614180366
C        3.7694402211   -1.8021769389   -0.4472620673
C        7.2491087385   -7.3968478525   -3.2368940895
C        4.4936446477   -0.7595532068   -1.2687349946
N        6.1585558328   -5.3014252326   -2.3619036890
N        4.0665438235   -3.0817577721   -0.5199764476
N        5.0015544272   -3.5587672817   -1.3944336371
S        4.6187447531   -6.1849332640   -0.4491778323
Cl      -0.4830207998   -0.2155693731    3.5725310208
H        1.7821564848    0.0493278654   -0.7455878023
H        3.3985605072   -2.7794712147    2.0703272168
H        0.0594284180    0.6866934882    0.9010462728
H        1.6597587122   -2.1284785888    3.7018987972
H        5.6070595649   -8.3886778984   -1.1640893779
H        7.2326596612   -6.9073677049   -4.2147995492
H        8.2711683488   -7.3807413282   -2.8488773219
H        6.9281876923   -8.4353588313   -3.3578511569
H        5.5727043255   -0.8430566506   -1.1098927018
H        4.2801073987   -0.9086644906   -2.3309887172
H        4.1834110503    0.2489893583   -0.9824862938
H        5.5053889040   -2.9856992441   -2.0635889571
29   

C        1.6701449596   -0.5938102025    0.1485782222
C        2.8006292417   -1.8317747062    1.8815290444
C        0.6669970951   -0.2407794166    1.0595964022
C        1.7954954518   -1.4767237835    2.7888569956
C        5.4989242411   -7.3299993960   -1.4341851849
C        2.7624172527   -1.3778752743    0.5533502181
C        0.7223636255   -0.6747701514    2.3879842352
C        6.3013876408   -6.6756472879   -2.3301608093
C        5.2770548971   -4.9118220068   -1.4791031608
C        3.8015750236   -1.7925242901   -0.4233856540
C        7.2277369464   -7.3902176370   -3.2643757680
C        4.5946035282   -0.7368428138   -1.1611385888
N        6.1659037530   -5.2939904007   -2.3564449215
N        4.0616339697   -3.0768665183   -0.5262993776
N        5.0212852514   -3.5515439223   -1.3747464832
S        4.5188080963   -6.1969239719   -0.5448962428
Cl      -0.5309063115   -0.2335894619    3.5210591396
H        1.5966878682   -0.2587377997   -0.8801442015
H        3.6165243679   -2.4697446750    2.2053469833
H       -0.1677827804    0.3701395343    0.7364486635
H        1.8421212229   -1.8308459231    3.8120326631
H        5.4690613211   -8.4036640442   -1.3006379985
H        7.2698396507   -6.8635623097   -4.2219892980
H        8.2318554072   -7.4238201488   -2.8330758064
H        6.8788071165   -8.4117853346   -3.4398261254
H        5.6568418524   -0.8295201908   -0.9171144514
H        4.4664564155   -0.8600731054   -2.2402691480
H        4.2575122931    0.2641391417   -0.8771463559
H        5.5725300212   -2.9712951242   -1.9988156173
29   

C        1.5738173093   -0.8245973682    0.0642534545
C        2.8953145869   -1.5926248514    1.9288131315
C        0.5486252006   -0.4584048191    0.9450250606
C        1.8682688543   -1.2253160455    2.8064101663
C        5.3814038251   -7.3487718337   -1.5734538894
C        2.7670216958   -1.3807728306    0.5480870660
C        0.6877550801   -0.6513013395    2.3235008083
C        6.2488365755   -6.6875207979   -2.4011883851
C        5.2521752807   -4.9240711941   -1.5170318763
C        3.8483878308   -1.7989052280   -0.3897328649
C        7.1902762555   -7.3960685154   -3.3248463966
C        4.7045268840   -0.7374621044   -1.0444716605
N        6.1664621324   -5.3017584006   -2.3698956870
N        4.0608632641   -3.0862388966   -0.5398470575
N        5.0426112907   -3.5605922045   -1.3627022694
S        4.4033972980   -6.2184493245   -0.6784344663
Cl      -0.5920845019   -0.1932711322    3.4195836812
H        1.4412451856   -0.6788689187   -1.0021704823
H        3.7982668642   -2.0515207604    2.3174502610
H       -0.3671631644   -0.0252150699    0.5601029853
H        1.9820888297   -1.3910994469    3.8713191182
H        5.3052487694   -8.4252634294   -1.4907682075
H        7.2944896993   -6.8309276435   -4.2553905752
H        8.1719937229   -7.4860910320   -2.8520728954
H        6.8131660456   -8.3952556714   -3.5605591394
H        5.7483987723   -0.8609130402   -0.7420254028
H        4.6376379162   -0.8222475273   -2.1327901511
H        4.3673847587    0.2596301546   -0.7466333418
H        5.6456103119   -2.9758084663   -1.9322871367
29   

C        1.5613619961   -1.0618340796    0.1393338493
C        3.0559647300   -1.2965200759    2.0166981581
C        0.5459934502   -0.6347824315    1.0038620002
C        2.0388043333   -0.8682550219    2.8782198050
C        5.0980203324   -7.3557211947   -1.8985166550
C        2.8286965820   -1.3933844943    0.6363144241
C        0.7758317256   -0.5313757645    2.3799519024
C        6.1297813114   -6.7054871740   -2.5210560768
C        5.1478010970   -4.9439215217   -1.6168848766
C        3.9189654320   -1.8241890141   -0.2901936870
C        7.1957129629   -7.4211588060   -3.2912785269
C        4.8340175014   -0.7719456378   -0.8776584857
N        6.1573699246   -5.3276683748   -2.3514006433
N        4.0389137462   -3.1070756672   -0.5423968868
N        5.0280928233   -3.5863699763   -1.3536341902
S        4.0753994477   -6.2229960600   -1.0578124296
Cl      -0.4903971828    0.0060712779    3.4555824282
H        1.3645393459   -1.1406300815   -0.9243746350
H        4.0282584512   -1.5581070282    2.4199253728
H       -0.4307829972   -0.3819065597    0.6083330129
H        2.2260149276   -0.7965982015    3.9432640446
H        4.9412186530   -8.4264779012   -1.9173280535
H        6.9517985023   -7.4078515655   -4.3569850878
H        8.1592264883   -6.9259035360   -3.1411706284
H        7.2775045521   -8.4587943760   -2.9554804082
H        5.8671217722   -0.9629797917   -0.5737100030
H        4.7750439147   -0.7935856096   -1.9695989765
H        4.5417978882    0.2225972429   -0.5281339903
H        5.7462988947   -3.0115620752   -1.7823526776
29   

C        1.5517503003   -1.4138460068    0.2083646926
C        3.0730734034   -0.9840270963    2.0299813350
C        0.4851172170   -0.9630955229    0.9954172507
C        2.0038544018   -0.5330489016    2.8134995154
C        5.0096547155   -7.3234841927   -2.0642920874
C        2.8566745827   -1.4376884628    0.7203230245
C        0.7010319162   -0.5184339927    2.3041089032
C        6.0846008210   -6.6791109849   -2.6157808722
C        5.1454418147   -4.9376181148   -1.6309125235
C        3.9945139527   -1.8595807158   -0.1449185505
C        7.1447522366   -7.3899472163   -3.3983090187
C        4.9367950362   -0.8033812494   -0.6791110319
N        6.1610207269   -5.3165850123   -2.3595512205
N        4.0738118612   -3.1277972043   -0.4767565076
N        5.0702796260   -3.5952630349   -1.2858906604
S        4.0066029324   -6.2034025540   -1.1840784784
Cl      -0.6299561555    0.0478161863    3.2823675674
H        1.3682465068   -1.7544992957   -0.8052030863
H        4.0766423683   -0.9838026774    2.4410103858
H       -0.5202063532   -0.9562737628    0.5907475974
H        2.1814192864   -0.1891046608    3.8257733098
H        4.8121818626   -8.3838923065   -2.1537620070
H        6.9246411832   -7.3175864469   -4.4668205025
H        8.1195019787   -6.9332895272   -3.2046676273
H        7.1873268373   -8.4446007579   -3.1119041020
H        5.9602739878   -1.0204875782   -0.3605992387
H        4.9005170319   -0.7891460929   -1.7722100462
H        4.6527436062    0.1845653770   -0.3051351142
H        5.8237381083   -3.0244554569   -1.6553549145
29   

C        1.5734138330   -1.6549796411    0.2956960588
C        3.0681684289   -0.7371114794    1.9512019332
C        0.4762250332   -1.2065255982    1.0407443966
C        1.9677770074   -0.2899193245    2.6926019103
C        4.9248677102   -7.2829213704   -2.1787181516
C        2.8841721437   -1.4364733401    0.7476348019
C        0.6628428802   -0.5209342033    2.2454060359
C        6.0451884948   -6.6616804549   -2.6623067727
C        5.1346881258   -4.9224415895   -1.6470944934
C        4.0419314028   -1.8614908119   -0.0795509985
C        7.1079658160   -7.3842666380   -3.4303658406
C        5.0412538034   -0.8269699491   -0.5473965324
N        6.1634790868   -5.3139283146   -2.3500540023
N        4.0872852849   -3.1177259083   -0.4634139385
N        5.0964994871   -3.5922832216   -1.2524479404
S        3.9307285892   -6.1575702756   -1.2950938958
Cl      -0.7070387567    0.0398431136    3.1717536061
H        1.4101313018   -2.1833172825   -0.6380148420
H        4.0707702017   -0.5431254903    2.3160589065
H       -0.5303510826   -1.3900537803    0.6835413832
H        2.1222441774    0.2427235237    3.6237161204
H        4.6907660085   -8.3305350813   -2.3172111125
H        6.9332216721   -7.2641607703   -4.5029534565
H        8.0908042374   -6.9735245276   -3.1823857551
H        7.0993844578   -8.4495763290   -3.1830376198
H        6.0404237794   -1.0824484843   -0.1833736426
H        5.0599315809   -0.7937408361   -1.6405740202
H        4.7717925715    0.1649791137   -0.1737766472
H        5.8863574929   -3.0382608754   -1.5674366287
29   

C        1.6171136347   -1.8208713071    0.4035976886
C        3.0576184887   -0.5343237467    1.8482597377
C        0.5032509873   -1.3869785381    1.1321672188
C        1.9397941510   -0.1034157063    2.5729852914
C        4.8418290597   -7.2307580133   -2.2737878936
C        2.9136934256   -1.4067286714    0.7549840386
C        0.6537324702   -0.5252297824    2.2226547415
C        6.0039736377   -6.6419004435   -2.6952546161
C        5.1249741241   -4.8977881320   -1.6608578303
C        4.0806579251   -1.8407763793   -0.0473040898
C        7.0654356303   -7.3839615009   -3.4463706341
C        5.1489215952   -0.8440212651   -0.4366326053
N        6.1639358884   -5.3101655175   -2.3363236236
N        4.0991608338   -3.0873586590   -0.4675208326
N        5.1227030442   -3.5793411761   -1.2270233593
S        3.8598817494   -6.0924040609   -1.3931914771
Cl      -0.7374469227    0.0149744234    3.1292902171
H        1.4747343699   -2.4885462641   -0.4401614690
H        4.0421915763   -0.1929435079    2.1476523650
H       -0.4886437104   -1.7208832222    0.8508742313
H        2.0661286348    0.5641419185    3.4173570480
H        4.5715580359   -8.2631836346   -2.4541891090
H        6.9372044563   -7.2231673757   -4.5202085545
H        8.0538348841   -7.0225917391   -3.1486411236
H        7.0040462665   -8.4551994394   -3.2347042699
H        6.1084465030   -1.1386248860   -0.0022012785
H        5.2491390948   -0.8110661377   -1.5254115733
H        4.8945611049    0.1601479175   -0.0871247326
H        5.9459079323   -3.0483168214   -1.4923103888
29   

C        1.6594230187   -1.9602811568    0.5259989799
C        3.0169009674   -0.3770498125    1.7360610730
C        0.5367056493   -1.5495754983    1.2541765003
C        1.8894170169    0.0288527532    2.4602586145
C        4.7739597018   -7.1695799509   -2.3793305739
C        2.9227413522   -1.3801659598    0.7512358250
C        0.6402507111   -0.5514069173    2.2260710608
C        5.9780238717   -6.6167277227   -2.7251808234
C        5.1154487823   -4.8668306296   -1.6867507226
C        4.0968534930   -1.8178811448   -0.0356499507
C        7.0468546080   -7.3802600271   -3.4436040516
C        5.2280385839   -0.8607286212   -0.3340763512
N        6.1708247939   -5.3024363406   -2.3208827156
N        4.0986072082   -3.0531319392   -0.4919760197
N        5.1400623727   -3.5614270161   -1.2156575510
S        3.7932014007   -6.0167299032   -1.5165041683
Cl      -0.7622194407   -0.0415526343    3.1329006439
H        1.5424897194   -2.7380761431   -0.2219602668
H        3.9683935728    0.0890187615    1.9635367994
H       -0.4260063444   -2.0099156983    1.0650684638
H        1.9805374140    0.7996770909    3.2166383316
H        4.4734494718   -8.1850988974   -2.6027716035
H        6.9859072609   -7.1779365144   -4.5163456389
H        8.0316622079   -7.0738376474   -3.0797192098
H        6.9277143150   -8.4541679397   -3.2743214487
H        6.1325970434   -1.1807126300    0.1909473465
H        5.4312577349   -0.8473756882   -1.4088358775
H        4.9819252179    0.1600353882   -0.0326202295
H        5.9954226064   -3.0556476403   -1.4219324677
29   

C        1.7214130773   -2.0872880607    0.6633168289
C        2.9509882133   -0.2399091850    1.6037913750
C        0.5889487291   -1.6977836071    1.3878218161
C        1.8130205396    0.1426231325    2.3243527024
C        4.7133422788   -7.1099031752   -2.4877527189
C        2.9282127725   -1.3613675554    0.7464252832
C        0.6224758122   -0.5791745747    2.2220838107
C        5.9541539900   -6.5965320713   -2.7559771403
C        5.1058104138   -4.8407769317   -1.7158227758
C        4.1126750862   -1.8012238488   -0.0246090483
C        7.0295636055   -7.3830886683   -3.4388539486
C        5.3029071174   -0.8940093406   -0.2340282901
N        6.1755075238   -5.3015404891   -2.3066225589
N        4.0989032284   -3.0230802711   -0.5190195502
N        5.1550180228   -3.5501585773   -1.2075247937
S        3.7335557804   -5.9415310593   -1.6448988188
Cl      -0.7923963895   -0.0965334289    3.1245463490
H        1.6456024292   -2.9641715163    0.0283091992
H        3.8493544203    0.3469840932    1.7461386904
H       -0.3272636006   -2.2704163987    1.3032295452
H        1.8514391024    1.0069253461    2.9771367093
H        4.3863730983   -8.1066808677   -2.7542949714
H        7.0384395663   -7.1451363684   -4.5059585598
H        8.0038262491   -7.1309986952   -3.0105740592
H        6.8565624269   -8.4555722052   -3.3124422536
H        6.1480354886   -1.2495290099    0.3623658900
H        5.5929574838   -0.8972197527   -1.2887448597
H        5.0872022225    0.1419126798    0.0315018775
H        6.0386707135   -3.0731394753   -1.3544110850
29   

C        1.8203703882   -2.2238510969    0.9047885438
C        2.8406084486   -0.1130713856    1.4469935879
C        0.6603739744   -1.8349766645    1.5842424562
C        1.6755521332    0.2672555103    2.1244890326
C        4.7058897397   -7.0544247581   -2.5561946586
C        2.9452913146   -1.3747898125    0.8137165683
C        0.5759622241   -0.5869688100    2.1998595989
C        5.9607991303   -6.5557416705   -2.7834266895
C        5.1312107379   -4.8288645753   -1.6816797349
C        4.1542549362   -1.8260670897    0.0859375352
C        7.0302659758   -7.3334972392   -3.4854277176
C        5.3867781581   -0.9620058969   -0.0444295951
N        6.2010636031   -5.2863430957   -2.2747124250
N        4.1309385894   -3.0313414849   -0.4486928564
N        5.1968345616   -3.5612605855   -1.1201711039
S        3.7364710594   -5.9033499834   -1.6782673380
Cl      -0.8727939835   -0.1041859965    3.0467821708
H        1.8260301470   -3.2072409208    0.4459138239
H        3.6422639808    0.6112591601    1.4424232828
H       -0.1856404909   -2.5104389386    1.6345921205
H        1.6204944774    1.2393018737    2.6007092483
H        4.3630577340   -8.0315104124   -2.8713030337
H        7.0575425667   -7.0511987749   -4.5413703250
H        8.0033818834   -7.1182818253   -3.0350151242
H        6.8355599358   -8.4068018996   -3.4065810620
H        6.2346004220   -1.4616475203    0.4332706652
H        5.6224322539   -0.8205994524   -1.1033143007
H        5.2872376486    0.0249250223    0.4016100638
H        6.0899262185   -3.0938074159   -1.2378135807
