14

C      1.20066   -0.67774    0.32443
C      3.31040   -1.80161    0.80425
C      0.84973   -0.83350    1.65245
C      2.44924   -1.17409   -0.09603
C      2.89693   -1.93543    2.12518
N      1.70092   -1.46038    2.48892
O      2.59262   -2.33010    4.66031
O      4.81775   -1.35400    3.92268
S      3.86218   -2.50055    3.81882
Cl     2.91172   -0.98462   -1.76082
H      0.53028   -0.18370   -0.36888
H      4.28446   -2.16507    0.49178
H     -0.08887   -0.47714    2.06425
H      1.56334   -1.60639    3.53763
