15

C      0.80359   -0.48278    0.56446
C      2.93336   -1.66269    0.52474
C      0.70591   -0.76277    1.91479
C      1.92717   -0.94194   -0.14483
C      2.78428   -1.89953    1.87517
N      1.69248   -1.45233    2.53393
O      4.35903   -4.01871    1.93420
O      2.97471   -3.16161    4.01389
S      4.11762   -2.84266    2.78513
Cl     2.06977   -0.63195   -1.82055
H      0.01539    0.07307    0.06886
H      3.79773   -2.04924   -0.00708
H     -0.13944   -0.46171    2.52393
H      1.60231   -1.72811    3.51684
H      3.42838   -3.54204    4.79368
