25

C      4.32502    1.25901   -5.22306
C      4.04320    0.29976   -4.29530
C      5.72513   -0.73636   -5.29188
C      1.92845   -0.77788   -3.47227
C     -0.01524   -1.75936   -2.55010
C      4.72762   -3.76587   -5.41270
C      2.94519    0.34093   -3.27861
N      4.85274   -0.82164   -4.33397
N      6.62887   -1.74171   -5.60401
O      1.91736   -1.59128   -4.37475
O      7.32347   -4.10192   -5.96400
O      6.64672   -3.40138   -3.60791
O      1.00861   -0.74271   -2.48204
S      5.66314    0.75520   -6.23032
S      6.44733   -3.36747   -5.04864
H      3.84290    2.21403   -5.38380
H     -0.66079   -1.57808   -1.69123
H      0.43396   -2.75335   -2.49207
H     -0.57765   -1.67086   -3.48236
H      4.58156   -4.78513   -5.04983
H      4.07958   -3.06421   -4.88772
H      4.59071   -3.71841   -6.49346
H      3.35504    0.24154   -2.26760
H      2.41243    1.29552   -3.30940
H      7.11116   -1.70375   -6.49682
