25

C      3.42640    0.08521   -6.20199
C      3.37569    0.17122   -4.83749
C      5.13687   -1.16571   -5.00326
C      1.43689    1.85866   -4.68660
C     -0.15507    3.57068   -4.33037
C      8.12236   -2.62475   -6.41206
C      2.41451    0.94489   -3.97704
N      4.35914   -0.54026   -4.16688
N      6.17456   -2.02230   -4.59718
O      1.18701    1.88211   -5.87694
O      7.90814   -0.20107   -5.36604
O      8.58262   -2.13904   -3.83459
O      0.83145    2.66684   -3.78657
S      4.72821   -0.95841   -6.68998
S      7.81983   -1.60260   -4.96263
H      2.79136    0.57441   -6.92481
H     -0.53040    4.13590   -3.47782
H     -0.96194    3.01045   -4.80828
H      0.30450    4.23723   -5.06349
H      9.16182   -2.45387   -6.69806
H      7.95504   -3.66597   -6.13822
H      7.45148   -2.30684   -7.21074
H      1.82244    0.24419   -3.37447
H      2.97619    1.53797   -3.24921
H      6.12416   -2.20357   -3.59298
