25

C      5.33961    1.45779   -4.89412
C      4.68916    0.25527   -4.90741
C      6.76166   -0.51607   -4.72746
C      2.29168    1.17881   -5.12210
C      0.01283    1.80466   -5.22088
C      6.65357   -3.87314   -4.12862
C      3.21413   -0.01769   -5.01177
N      5.50935   -0.85977   -4.82594
N      7.79529   -1.45157   -4.61089
O      2.61118    2.34802   -5.22136
O      9.08733   -3.14129   -3.27318
O      7.02523   -2.10899   -2.18252
O      1.00471    0.76106   -5.10632
S      7.05394    1.21201   -4.71831
S      7.71170   -2.64573   -3.35519
H      4.91656    2.44578   -4.99291
H     -0.94906    1.29359   -5.19226
H      0.13577    2.34435   -6.16263
H      0.10221    2.50647   -4.38871
H      6.51263   -4.66556   -3.39119
H      5.71209   -3.38260   -4.37603
H      7.16193   -4.24503   -5.01780
H      3.02369   -0.66107   -5.87895
H      2.89460   -0.60980   -4.14714
H      8.74534   -1.08750   -4.64996
