24

C      4.71898    1.27134   -3.11787
C      4.11861    0.06266   -3.32573
C      6.22037   -0.66005   -3.65051
C      1.93498    0.68676   -2.28299
C      1.37161    0.94975   -0.00614
C      8.59779   -0.43450   -5.97524
C      2.62425   -0.20234   -3.28786
N      4.93682   -1.00079   -3.62050
N      7.19543   -1.54781   -3.92572
O      1.47571    1.79448   -2.50629
O      9.57712   -2.23456   -4.30829
O      9.15014    0.11133   -3.45760
O      1.89357    0.11388   -1.05010
S      6.45455    1.11046   -3.25159
S      8.69415   -1.05269   -4.26293
H      4.24792    2.22110   -2.89856
H      1.43114    0.35254    0.90487
H      0.33528    1.23116   -0.21446
H      1.97311    1.85746    0.09292
H      9.59464   -0.09145   -6.26189
H      8.27066   -1.25684   -6.61343
H      7.88537    0.39279   -6.00742
H      2.17287   -0.01898   -4.26832
H      2.47824   -1.25079   -3.02108
