25

C      4.78912    1.37260   -5.30916
C      3.77875    0.76923   -4.61269
C      5.19167   -0.93451   -4.68754
C      2.31827    1.51793   -2.67260
C      3.39577    1.95573   -0.61835
C      6.84902   -1.76714   -2.05963
C      2.49017    1.40531   -4.18224
N      4.02178   -0.54625   -4.25822
N      5.65410   -2.24964   -4.52867
O      1.25477    1.40851   -2.09657
O      7.17521   -3.98171   -3.50949
O      8.14942   -1.77120   -4.36813
O      3.48503    1.80006   -2.05032
S      6.10656    0.26869   -5.57015
S      7.11504   -2.53292   -3.67492
H      4.85154    2.39970   -5.64486
H      4.41058    2.17461   -0.28628
H      3.02755    1.03534   -0.15937
H      2.72182    2.77737   -0.36526
H      7.78332   -1.87487   -1.50600
H      6.61064   -0.71333   -2.20878
H      6.03678   -2.29167   -1.55538
H      2.41738    2.41739   -4.59362
H      1.63318    0.83728   -4.55135
H      4.91517   -2.87481   -4.20645
