25

C      4.73527    1.64650   -4.69478
C      4.23114    0.48550   -4.17372
C      6.11670   -0.33530   -5.00107
C      1.75334    0.95791   -4.16872
C      0.74379    3.00551   -4.79165
C      6.46343   -3.57176   -3.97396
C      2.92146    0.32505   -3.43502
N      5.01804   -0.63517   -4.36609
N      7.09403   -1.28498   -5.30801
O      0.88876    0.34847   -4.76386
O      8.95658   -2.82262   -4.61951
O      7.72428   -1.57000   -2.77017
O      1.79390    2.31130   -4.08266
S      6.28993    1.35879   -5.41899
S      7.72109   -2.29209   -4.03996
H      4.28340    2.62819   -4.70497
H      0.92824    4.06563   -4.61907
H     -0.23359    2.71511   -4.40037
H      0.78874    2.77268   -5.85799
H      6.75752   -4.24999   -3.17078
H      5.51240   -3.08420   -3.75954
H      6.44912   -4.08083   -4.93729
H      2.71088   -0.73832   -3.32850
H      2.99962    0.77096   -2.43797
H      7.86794   -0.97460   -5.89211
