18

C      2.80616   -0.36754   -0.23774
C      0.80776    0.43379    1.90308
C      1.74719    0.24372    3.96005
C     -0.75590    0.58756   -0.06794
C      0.69242    0.60804    0.41148
N      3.96578   -0.23159   -0.16717
N     -0.20298    0.24724    2.70619
N      2.00499    0.45195    2.59430
N      0.36567    0.13367    3.95603
N      1.46635   -0.43380   -0.32185
O      2.53295    0.18013    4.89190
H     -1.23538   -0.36555    0.17252
H     -1.32785    1.37684    0.42289
H     -0.78120    0.73950   -1.14921
H      1.15614    1.56051    0.13452
H      2.94176    0.50564    2.20966
H     -0.21293   -0.00495    4.77244
H      1.09304   -1.37439   -0.21751
