11

C     -0.88007    0.56332    0.35838
N     -1.27423   -0.80095    0.73024
O      1.75527    0.22802   -0.70156
O      0.01789    1.86750   -1.81118
P      0.31952    0.45744   -1.02368
H     -1.70486    1.23221    0.07476
H     -0.34035    1.03443    1.18509
H     -2.10310   -1.09391    0.22056
H     -1.48570   -0.86158    1.72175
H      0.82667    2.20186   -2.23667
H     -0.25314   -0.51480   -1.87707
