22

C     -0.68628    1.81818    0.47402
C     -1.50998    0.07325   -1.22272
C     -0.53147   -0.68852    1.06917
C     -0.70629    0.37316   -0.00582
C      0.63859   -0.42846    0.17852
C      1.83756    0.33445    0.71607
C      1.01714   -1.44821   -0.88323
N     -0.70864    2.78081   -0.49037
O     -0.58441    2.08521    1.67171
O     -1.68019    0.82902   -2.17215
O     -2.07594   -1.16161   -1.22063
H     -0.50198   -0.29006    2.07779
H     -1.08823   -1.60911    0.93557
H      2.34443    0.87812   -0.08894
H      2.55205   -0.38199    1.13743
H      1.56527    1.04307    1.49817
H      1.46989   -0.95782   -1.75242
H      0.16810   -2.04344   -1.22161
H      1.76132   -2.13600   -0.46627
H     -0.82058    3.73352   -0.16652
H     -0.99257    2.53565   -1.43387
H     -2.54241   -1.23951   -2.07548
