20

C     -1.93507   -0.81448    0.20693
C      2.20627    1.88580   -1.17774
C      1.39884   -1.68181    0.68984
C     -3.06295   -0.42841    1.23432
N     -0.95846    0.14105    0.07105
O     -1.93328   -1.89020   -0.34829
O      0.04807    0.15815   -2.47548
O      1.18268    1.24288   -0.37448
O      1.11066   -1.31724   -0.67824
P      0.34643    0.03309   -1.04068
Cl    -3.71271    1.21558    0.85573
Cl    -4.37134   -1.61715    1.18855
Cl    -2.30118   -0.40570    2.87839
H      2.54084    2.74782   -0.60107
H      1.78878    2.20226   -2.13545
H      3.04109    1.19915   -1.34154
H      2.11000   -2.50592    0.63668
H      0.48421   -2.01499    1.18531
H      1.84068   -0.84072    1.23108
H     -1.07698    1.03524    0.53775
