15

C      4.94137   -1.92533    5.08504
C     -0.86789   -2.31710    3.61373
C      3.69698   -2.83673    3.09506
C      2.74778   -1.65224    2.89320
N      4.70353   -2.54283    4.08440
S      5.36929   -1.15225    6.40773
S      0.25357   -3.40208    2.65228
S      1.44746   -2.00823    1.65014
H     -1.55639   -2.98118    4.14512
H     -1.43361   -1.66407    2.94713
H     -0.31231   -1.72219    4.34182
H      4.19183   -3.09153    2.15449
H      3.13365   -3.71698    3.42229
H      2.28450   -1.36466    3.84057
H      3.29162   -0.78530    2.50435
