18   

C        4.6331489549    1.3459722541    0.7538183267
C        5.8139907438    1.1162716685    0.0578439674
C        3.5008874128    0.5758692131    0.4819786556
C        5.8525192031    0.1176163522   -0.9129831109
C        3.5148812075   -0.4449182471   -0.4880718959
C        4.7243040988   -0.6614947115   -1.1988640383
C        2.2836726517   -1.2595635898   -0.7409971179
C        0.9255132149   -0.7892422631   -0.2311502881
O        2.3102354744   -2.3131859061   -1.3628699842
O        4.8394502894   -1.6001087813   -2.1827803816
H        4.5933087829    2.1217186172    1.5103739409
H        6.6964254205    1.7112887305    0.2677203100
H        2.6063407869    0.7855760807    1.0569106674
H        6.7762154819   -0.0470309145   -1.4536461999
H        0.7670969494    0.2586429371   -0.4992965503
H        0.8758648960   -0.9036685698    0.8547637686
H        0.1296915369   -1.3874178046   -0.6844089381
H        5.7506974385   -1.6457514360   -2.5119242841
18   

C        4.6560720434    1.3455002566    0.7980865019
C        5.8087067182    1.1619621337    0.0407735712
C        3.5350944513    0.5453601376    0.5677991315
C        5.8294911942    0.1814567930   -0.9507642908
C        3.5390812337   -0.4554416673   -0.4197620245
C        4.7108292077   -0.6248425246   -1.1941939047
C        2.3294741382   -1.3189268933   -0.6179731070
C        0.9406437294   -0.7750286123   -0.3057239918
O        2.4123600260   -2.4711546229   -1.0185709282
O        4.7846255734   -1.5399450616   -2.2039744093
H        4.6309738601    2.1060786744    1.5704842881
H        6.6827895534    1.7791405625    0.2191880868
H        2.6587921020    0.7057304072    1.1858787572
H        6.7286195234    0.0543169310   -1.5406948478
H        0.8585710057    0.2596012194   -0.6492617612
H        0.7583992825   -0.8184453640    0.7710678967
H        0.1829331185   -1.3739968577   -0.8189723565
H        5.6888866515   -1.5978301222   -2.5507692846
18   

C        4.7236059092    1.2900806047    0.8579609490
C        5.8289615491    1.1403999413    0.0240819773
C        3.5968832321    0.4855203685    0.6732469358
C        5.7968165866    0.1891053485   -0.9967347065
C        3.5526894013   -0.4797736068   -0.3443829146
C        4.6707240661   -0.6193333206   -1.1921514993
C        2.3474367075   -1.3659700565   -0.4960315700
C        0.9502040474   -0.7750503945   -0.3656894521
O        2.4567350047   -2.5681761037   -0.6810882383
O        4.6741182228   -1.5111448888   -2.2252947070
H        4.7408016991    2.0260546149    1.6540197575
H        6.7074984189    1.7604683533    0.1669973319
H        2.7546132194    0.6093642571    1.3450197522
H        6.6581162534    0.0867101317   -1.6450194662
H        0.8937598240    0.1644802520   -0.9218801377
H        0.7197859907   -0.5888426073    0.6860968526
H        0.2119787872   -1.4706905011   -0.7747288677
H        5.5609874916   -1.5831981439   -2.6129038404
18   

C        4.7769615704    1.2316690816    0.9525417868
C        5.8308165863    1.1371717963    0.0451625057
C        3.6523811039    0.4162228940    0.8024124374
C        5.7505627376    0.2283879521   -1.0123179851
C        3.5638512259   -0.4991184923   -0.2538192506
C        4.6258028972   -0.5893716030   -1.1706775071
C        2.3643005783   -1.4049516050   -0.3769963154
C        0.9631906638   -0.8087623139   -0.4041810777
O        2.4840695210   -2.6188476484   -0.3551165292
O        4.5692326074   -1.4487952981   -2.2294476084
H        4.8335867648    1.9317161726    1.7785917828
H        6.7073850973    1.7655606961    0.1612312248
H        2.8511565363    0.4895706509    1.5296132199
H        6.5719454155    0.1659714352   -1.7151802008
H        0.7939810652   -0.3288123973   -1.3717154031
H        0.8460014790   -0.0657400912    0.3877134752
H        0.2178471197   -1.5966133920   -0.2633220010
H        5.4326239541   -1.5044313778   -2.6700832242
18   

C        4.8386257294    1.1837745806    1.0318077402
C        5.8391248448    1.1234479393    0.0622276218
C        3.7104653072    0.3667376636    0.9204153735
C        5.7020285979    0.2466482539   -1.0169377222
C        3.5680907327   -0.5143591444   -0.1557819405
C        4.5729332850   -0.5718902444   -1.1338143767
C        2.3581691156   -1.4159331338   -0.2556184048
C        0.9906648720   -0.8060595412   -0.5242994255
O        2.4380934431   -2.6069932263   -0.0090216900
O        4.4535331465   -1.4055748845   -2.2079335145
H        4.9388035327    1.8590086837    1.8741959564
H        6.7180228776    1.7535686072    0.1470483022
H        2.9441390729    0.4108632114    1.6870672262
H        6.4818007677    0.2098618885   -1.7673925608
H        0.9020942683   -0.5743587936   -1.5889994763
H        0.8687358869    0.1145000516    0.0517293067
H        0.2026521484   -1.5106231469   -0.2442687576
H        5.2844428771   -1.4338337861   -2.7101018620
18   

C        4.9142367348    1.1369593036    1.1193396241
C        5.8512057728    1.1056343674    0.0868139659
C        3.7790521339    0.3245279131    1.0545416343
C        5.6429454327    0.2631489781   -1.0082885045
C        3.5701342767   -0.5278990587   -0.0328433599
C        4.5065762697   -0.5506182486   -1.0771576568
C        2.3326806703   -1.3957109205   -0.1114142168
C        1.0784382789   -0.8460169124   -0.7723211634
O        2.3184521221   -2.5209620057    0.3569035494
O        4.3134659437   -1.3497972261   -2.1669313458
H        5.0674404690    1.7880053989    1.9727148129
H        6.7346539335    1.7333022313    0.1344140625
H        3.0568449948    0.3492429963    1.8638800095
H        6.3722999432    0.2506649196   -1.8085871012
H        1.2779986639   -0.6567877296   -1.8303910186
H        0.7866800822    0.0903348002   -0.2900634381
H        0.2598372583   -1.5659167355   -0.6856007891
H        5.1000017011   -1.3407320705   -2.7372606395
18   

C        4.9701236608    1.0775134754    1.1664757198
C        5.8557071736    1.0796484019    0.0891756564
C        3.8243295764    0.2788919426    1.1243309099
C        5.5867960992    0.2831554371   -1.0270885246
C        3.5543983572   -0.5279086104    0.0145702431
C        4.4399970919   -0.5176554842   -1.0743652969
C        2.2910481144   -1.3567723676   -0.0306313630
C        1.1372971187   -0.9255126555   -0.9244368880
O        2.1822206524   -2.3746476185    0.6332516641
O        4.1962937968   -1.2792286353   -2.1808201030
H        5.1704861103    1.6926067333    2.0365915394
H        6.7469361241    1.6973335383    0.1191520060
H        3.1399478106    0.2782804808    1.9664977601
H        6.2787043353    0.2955179252   -1.8599787641
H        1.4640944415   -0.9007998568   -1.9669948657
H        0.8001092430    0.0722167766   -0.6322960826
H        0.3044955958   -1.6277971022   -0.8292824679
H        4.9509529612   -1.2383922179   -2.7917704828
18   

C        5.0275438542    1.0331202182    1.1988495995
C        5.8693796464    1.0699348641    0.0873065970
C        3.8679040532    0.2546136141    1.1683375815
C        5.5444625584    0.3277480035   -1.0519108256
C        3.5428392847   -0.4978245275    0.0325380724
C        4.3838304364   -0.4537561411   -1.0906134541
C        2.2553888184   -1.2841796603    0.0325155930
C        1.1591130243   -0.9687913641   -0.9756946844
O        2.0621335897   -2.1526924064    0.8700791312
O        4.0927669035   -1.1675912817   -2.2168892485
H        5.2720952804    1.6059342614    2.0863599347
H        6.7711738566    1.6724444205    0.1090975264
H        3.2161624356    0.2267322307    2.0359150409
H        6.2053684286    0.3665631977   -1.9088114908
H        1.4157842571   -1.3922633838   -1.9496848510
H        1.0486529393    0.1141994054   -1.0734577620
H        0.2091336251   -1.3948464950   -0.6416953084
H        4.8195656348   -1.0957418176   -2.8582405465
18   

C        5.0238361712    0.8999921076    1.2659797225
C        5.8416193934    0.9702154870    0.1386765521
C        3.8345499052    0.1689903836    1.2190311664
C        5.4646539129    0.3073214357   -1.0328082121
C        3.4536816969   -0.5034781805    0.0479737210
C        4.2747115298   -0.4279477943   -1.0907944013
C        2.1348636819   -1.2265628262    0.0548249545
C        1.1353180784   -1.0626737030   -1.0823056887
O        1.8274942007   -1.9241431991    1.0129604984
O        3.9434472432   -1.0671393860   -2.2504000323
H        5.3089641467    1.4111590337    2.1786758916
H        6.7657755558    1.5371830167    0.1735389240
H        3.2018534990    0.1189402172    2.0999340659
H        6.1098012876    0.3710749990   -1.9001601638
H        1.3051685704   -1.8365744642   -1.8352861669
H        1.2542597112   -0.0793812248   -1.5448703670
H        0.1156783298   -1.1523491447   -0.6980625353
H        4.6519625043   -0.9606612082   -2.9073074659
18   

C        5.0770858982    0.8538708058    1.2798328288
C        5.8709490380    0.9418145125    0.1379458994
C        3.8596999682    0.1714424311    1.2314795050
C        5.4437161175    0.3423582765   -1.0495379786
C        3.4201689122   -0.4326382186    0.0407205300
C        4.2257619866   -0.3456370401   -1.1122392493
C        2.0824425880   -1.1168180306    0.0737127527
C        1.1450248547   -1.1282069795   -1.1274520386
O        1.6868705618   -1.6163858788    1.1214236485
O        3.8643381094   -0.9313092802   -2.2907166459
H        5.4021335386    1.3140637183    2.2062139165
H        6.8168006887    1.4716842553    0.1745174673
H        3.2517159270    0.1132797351    2.1292577685
H        6.0745881739    0.4160726269   -1.9265513993
H        1.3817881543   -1.9792815737   -1.7712182997
H        1.2539717754   -0.2015535880   -1.6969046838
H        0.1083069566   -1.2131503606   -0.7905182731
H        4.5637841383   -0.8096119921   -2.9547052631
18   

C        5.0830097870    0.7998026416    1.3193374461
C        5.8609611059    0.8893165104    0.1682669379
C        3.8307047940    0.1846207058    1.2692036549
C        5.3831668734    0.3571650337   -1.0306945502
C        3.3329246644   -0.3496816010    0.0655402595
C        4.1299665868   -0.2644105257   -1.0982631073
C        1.9669680649   -0.9783938683    0.1183463243
C        1.1066665504   -1.2078731231   -1.1190034474
O        1.4736853313   -1.2520117208    1.2086311714
O        3.7350379950   -0.7845955186   -2.2960990422
H        5.4471614200    1.2072294975    2.2558395864
H        6.8338619151    1.3675770391    0.2066520136
H        3.2452422684    0.1312730874    2.1820301337
H        6.0042437278    0.4300997406   -1.9147457759
H        1.4613438148   -2.0904137567   -1.6576421922
H        1.1513419073   -0.3346742046   -1.7748359599
H        0.0656044160   -1.3687667491   -0.8255543470
H        4.4289761488   -0.6537205556   -2.9640897284
18   

C        5.1368197601    0.7417162920    1.3248051838
C        5.9095594568    0.8403127655    0.1720257197
C        3.8570325086    0.1876727448    1.2623507863
C        5.3966425100    0.3825851806   -1.0421945064
C        3.3234184494   -0.2794076574    0.0452144916
C        4.1148238332   -0.1761445699   -1.1239601884
C        1.9337491216   -0.8573044862    0.0966843421
C        1.2005330297   -1.4089625035   -1.1209809657
O        1.3396025054   -0.8958518344    1.1707119722
O        3.6851390387   -0.6003468950   -2.3470148900
H        5.5263533476    1.0945460151    2.2731866190
H        6.9041073123    1.2707883606    0.2201115450
H        3.2829163642    0.1269120924    2.1818019808
H        6.0121750839    0.4673544869   -1.9290721537
H        1.7624868013   -2.2430101877   -1.5489830204
H        1.0763611240   -0.6226347184   -1.8699042336
H        0.2104203182   -1.7704837403   -0.8294344939
H        4.3713632831   -0.4426378926   -3.0171390196
18   

C        5.1399417092    0.6652486472    1.3459473907
C        5.9096647721    0.7742044090    0.1910281825
C        3.8354123420    0.1734434769    1.2713793555
C        5.3676157591    0.3938528796   -1.0379942444
C        3.2784060294   -0.2209447857    0.0400085805
C        4.0604104992   -0.1001400397   -1.1308297707
C        1.8700857630   -0.7495810726    0.0729884152
C        1.2736310223   -1.6023569704   -1.0409367593
O        1.1817370469   -0.5623994570    1.0720154821
O        3.5850170580   -0.4302229726   -2.3663127503
H        5.5512228032    0.9613322878    2.3044992422
H        6.9234472554    1.1558849521    0.2485399933
H        3.2594731984    0.0975902986    2.1886606250
H        5.9783432492    0.4912400869   -1.9268869095
H        2.0021428751   -2.3446658477   -1.3768482458
H        0.9848883026   -0.9648485435   -1.8805892409
H        0.3865907740   -2.1271237934   -0.6754386117
H        4.2577060479   -0.2491429337   -3.0442430651
18   

C        4.6333768058    1.9329423890    0.1016786784
C        5.7639059221    1.1271494251   -0.0185697318
C        3.3673870202    1.3994544985   -0.1487914753
C        5.6227471494   -0.2114806104   -0.3929186648
C        3.2150583195    0.0531707736   -0.5233993714
C        4.3596343244   -0.7594388605   -0.6478088260
C        1.8128965991   -0.4423375250   -0.7404684171
C        1.3901683562   -1.8645638048   -0.3936952344
O        0.9522594038    0.3377799710   -1.1334834336
O        4.2780506041   -2.0667810962   -1.0307558943
H        4.7339946748    2.9734951851    0.3893265752
H        6.7477675947    1.5406581526    0.1757534195
H        2.4961276638    2.0397654452   -0.0490806121
H        6.5116931874   -0.8227483568   -0.4862599913
H        1.9515962403   -2.2216957891    0.4735346375
H        1.5804916578   -2.5231804470   -1.2450593999
H        0.3233530233   -1.8887812649   -0.1552789454
H        5.1679977307   -2.4495711346   -1.1106415619
18   

C        4.6038665077    1.9101860230    0.1632564807
C        5.7455798893    1.1228543760    0.0179766863
C        3.3485204632    1.3794519201   -0.1423504704
C        5.6254972947   -0.1946665876   -0.4332676732
C        3.2220406354    0.0596335647   -0.6014095864
C        4.3721698118   -0.7365977938   -0.7421821506
C        1.8346911296   -0.4603524828   -0.8603795496
C        1.3845614091   -1.8153211190   -0.3307935797
O        1.0270533710    0.2333182828   -1.4650992017
O        4.2955817854   -2.0249552260   -1.1863186244
H        4.6882541744    2.9331521967    0.5125741993
H        6.7213269794    1.5335920811    0.2545023826
H        2.4634031257    1.9974366686   -0.0263277813
H        6.5209616545   -0.7939294308   -0.5410023241
H        1.9340128739   -2.0605329945    0.5818683629
H        1.5752748200   -2.5855253564   -1.0825682083
H        0.3151880948   -1.7905128468   -0.1045752261
H        5.1867921257   -2.4005921796   -1.2837862368
18   

C        4.5677681819    1.8358735145    0.2279251592
C        5.7211097519    1.0771152022    0.0291875048
C        3.3209929032    1.3122003974   -0.1228594898
C        5.6201359884   -0.2049571560   -0.5187116302
C        3.2153089642    0.0315659743   -0.6802449048
C        4.3744688147   -0.7369888604   -0.8717091031
C        1.8424448056   -0.5069535345   -0.9982155475
C        1.3227360971   -1.7549969021   -0.2980268323
O        1.1161397421    0.0785887642   -1.7873617398
O        4.3077430365   -1.9915241094   -1.4050436033
H        4.6371519467    2.8311648993    0.6523986554
H        6.6905323204    1.4820473571    0.2993334091
H        2.4257928483    1.9064028063    0.0313098142
H        6.5229384394   -0.7844250869   -0.6661796195
H        1.5658843090   -1.7084871734    0.7665504536
H        1.7834341345   -2.6454579653   -0.7323384624
H        0.2375703513   -1.8244696779   -0.4126310750
H        5.2019927696   -2.3428407330   -1.5520975501
18   

C        4.6407452337    1.8267864327    0.3526210717
C        5.8060269379    1.0973516434    0.1184314318
C        3.4030623344    1.3038490689   -0.0309010369
C        5.7247281330   -0.1547729771   -0.4966321536
C        3.3155562498    0.0559228380   -0.6556509592
C        4.4872822539   -0.6831423072   -0.8816550266
C        1.9654372511   -0.5117718287   -1.0299057302
C        1.3704530390   -1.6467050559   -0.2089598663
O        1.3447822698   -0.0803508760   -1.9876716388
O        4.4351908775   -1.9127835737   -1.4723311876
H        4.6941747619    2.7990209407    0.8295825808
H        6.7687041077    1.5009334908    0.4135539469
H        2.4994924019    1.8767642018    0.1506254533
H        6.6351819996   -0.7148090877   -0.6699236761
H        1.2538518297   -1.3262848975    0.8294239535
H        2.0321277022   -2.5158531533   -0.2421388869
H        0.3926801097   -1.9285707750   -0.6093693767
H        5.3327485339   -2.2407705187   -1.6491175817
18   

C        4.6248892688    1.7745559271    0.4295401008
C        5.8108742275    1.0983049254    0.1447062328
C        3.4005361016    1.2315423130    0.0308123680
C        5.7631400446   -0.1218560924   -0.5345106731
C        3.3466797739    0.0168816565   -0.6579505931
C        4.5387636108   -0.6692657858   -0.9339329782
C        2.0198763456   -0.5797356977   -1.0753633099
C        1.2887906517   -1.5108248197   -0.1210728804
O        1.5206570610   -0.3175839679   -2.1559872953
O        4.5151575520   -1.8730339707   -1.5773387607
H        4.6524069302    2.7216789226    0.9565906682
H        6.7633749501    1.5175502909    0.4507924525
H        2.4818685229    1.7654946660    0.2502824755
H        6.6885636184   -0.6432195050   -0.7451356346
H        1.1277891742   -1.0074187706    0.8355404578
H        1.8905387420   -2.4085650204    0.0435630323
H        0.3221838710   -1.8001818166   -0.5427710718
H        5.4178808465   -2.1576899990   -1.7965588159
18   

C        4.6013856006    1.6757170215    0.5019553526
C        5.8138783905    1.0740237325    0.1664643432
C        3.3982152900    1.0905254321    0.0986739630
C        5.8143188502   -0.1140582534   -0.5688151643
C        3.3916856427   -0.0971020480   -0.6391016682
C        4.6117914173   -0.7049139120   -0.9729664252
C        2.0871838922   -0.7101778706   -1.0964170613
C        1.1356210067   -1.2997713250   -0.0663161288
O        1.7301550443   -0.6361832941   -2.2595425139
O        4.6386701940   -1.8760921146   -1.6734219074
H        4.5922985996    2.5995605657    1.0694278315
H        6.7500530234    1.5271053859    0.4746888701
H        2.4605692390    1.5735497414    0.3525743812
H        6.7604453573   -0.5765525974   -0.8208542709
H        1.0916672114   -0.6580177739    0.8170442212
H        1.4931199449   -2.2895004905    0.2299047313
H        0.1322829282   -1.3936059214   -0.4909324446
H        5.5465804930   -2.0886076585   -1.9453013183
18   

C        4.5873769328    1.5891786617    0.5710030837
C        5.8160857223    1.0573664135    0.1832784445
C        3.4013773660    0.9691332496    0.1695989583
C        5.8506140511   -0.0972989196   -0.6016723837
C        3.4262035409   -0.1879580558   -0.6189376908
C        4.6666469860   -0.7254585258   -1.0048189198
C        2.1378869441   -0.8202344679   -1.0829247623
C        1.0683738253   -1.1964376310   -0.0661122895
O        1.8879807669   -0.9476320896   -2.2702253857
O        4.7369425826   -1.8663152161   -1.7506789949
H        4.5521594568    2.4877255319    1.1768117480
H        6.7387814525    1.5386784956    0.4893629439
H        2.4546726650    1.4086710208    0.4640783404
H        6.8099936918   -0.5059995984   -0.8934521186
H        0.9027604609   -0.3783771303    0.6383457947
H        1.3913743690   -2.0829378612    0.4860604141
H        0.1274382377   -1.4194557346   -0.5769826330
H        5.6446561906   -2.0152496246   -2.0614424037
18   

C        4.5896341864    1.4929910177    0.6481590839
C        5.8229804647    1.0375991361    0.1887726078
C        3.4169433033    0.8414435645    0.2592721180
C        5.8756164101   -0.0743788490   -0.6531175854
C        3.4536729761   -0.2734179294   -0.5920953886
C        4.7060734347   -0.7363167778   -1.0453527501
C        2.1758319672   -0.9312762710   -1.0345160578
C        1.0531048939   -1.1592907352   -0.0315612699
O        1.9925979962   -1.2542376615   -2.1979606306
O        4.8118148534   -1.8395187237   -1.8419023286
H        4.5398555462    2.3567566680    1.3016830852
H        6.7356600834    1.5434717565    0.4851597059
H        2.4673310127    1.2240328349    0.6168936476
H        6.8402144885   -0.4256924701   -0.9976819230
H        0.5363874865   -0.2181180548    0.1714436611
H        1.4657302591   -1.5555578095    0.9000848001
H        0.3356777852   -1.8805304640   -0.4332035364
H        5.7172439719   -1.9336580473   -2.1785108178
18   

C        4.5826632243    1.4237068734    0.7108281492
C        5.8176382493    1.0461818363    0.1930187023
C        3.4274337081    0.7374722381    0.3308361422
C        5.8899833716   -0.0242298307   -0.6980375594
C        3.4775569990   -0.3374059328   -0.5740333023
C        4.7395327078   -0.7229812974   -1.0840154744
C        2.2133872515   -1.0303569648   -0.9864765866
C        1.0264260936   -1.0897586920   -0.0326454580
O        2.0871653499   -1.5527736810   -2.0846796626
O        4.8844434124   -1.7840943859   -1.9299149680
H        4.5174260655    2.2542804420    1.4048018709
H        6.7168346543    1.5792299018    0.4829621082
H        2.4800889518    1.0673826278    0.7423462194
H        6.8577378352   -0.3155375816   -1.0868881360
H        0.4810624767   -0.1429474879   -0.0592292135
H        1.3745463525   -1.2829991031    0.9855319416
H        0.3512050063   -1.8974030936   -0.3294580317
H        5.7934629821   -1.8355860368   -2.2650856850
18   

C        4.6207900294    1.3814591139    0.7150207945
C        5.8377373756    1.0479811285    0.1324739638
C        3.4647988220    0.6795402156    0.3686603171
C        5.8910278795    0.0068743391   -0.7919492590
C        3.4892121383   -0.3712249734   -0.5686232400
C        4.7405654474   -0.7083132781   -1.1476940174
C        2.2250232610   -1.0910941863   -0.9251415909
C        0.9827395088   -0.9537661651   -0.0512911783
O        2.1364666913   -1.8138890230   -1.9086446949
O        4.8848073298   -1.7305616415   -2.0401900291
H        4.5697222776    2.1894924751    1.4362837370
H        6.7377644430    1.5924497496    0.3975956928
H        2.5379597915    0.9820618768    0.8421447891
H        6.8462522086   -0.2483904462   -1.2335672911
H        0.5472086795    0.0407831367   -0.1775933426
H        1.2438553745   -1.1115397579    0.9984647609
H        0.2392606233   -1.7023744251   -0.3401065324
H        5.7951709759   -1.7736718802   -2.3721083845
18   

C        4.6296201081    1.3631536800    0.7326776828
C        5.8322206672    1.0850063588    0.0954469317
C        3.4864214599    0.6250096212    0.4213919426
C        5.8829987930    0.0661348289   -0.8527034517
C        3.5073892624   -0.4113221858   -0.5332159435
C        4.7452474034   -0.6839004976   -1.1766033192
C        2.2589105601   -1.1798849009   -0.8387197265
C        0.9501179752   -0.8554549044   -0.1252594758
O        2.2285397163   -2.0876898648   -1.6594186106
O        4.8890443215   -1.6621162632   -2.1171690408
H        4.5801025397    2.1545147992    1.4723126618
H        6.7226535109    1.6565268757    0.3347956500
H        2.5753353062    0.8835827855    0.9479434247
H        6.8262915304   -0.1410744727   -1.3425141822
H        0.6576814623    0.1772124348   -0.3326086052
H        1.0667093975   -0.9982212293    0.9522097509
H        0.1566413458   -1.5196081288   -0.4802676177
H        5.8023436682   -1.6989123821   -2.4413937777
