15   

C        2.3735518359   -0.8682187565   -1.0115462200
C        1.3057966043   -1.3292230266   -0.2891817577
C        3.4829494026   -1.6362979520   -1.7090710822
C       -0.8572744778   -0.4581753434   -1.1956095843
C       -0.0969922014   -1.7006085788   -0.7412463602
H        2.7543727220    0.0793933928   -0.6454470039
H        1.2943053634   -0.9854627613    0.7397308175
H        4.3819926491   -1.0183511785   -1.7920031929
H        3.1610958170   -1.9269278500   -2.7132593082
H        3.7274324635   -2.5397542763   -1.1427118248
H       -0.3416420409    0.0202390913   -2.0339653762
H       -0.9343488487    0.2587949075   -0.3719138444
H       -1.8673354979   -0.7332215535   -1.5142217708
H       -0.6345864363   -2.1731936309    0.0870458446
H       -0.0376886839   -2.4217873980   -1.5626689004
15   

C        2.4056407375   -0.8120111949   -0.9165608482
C        1.3162227935   -1.2303407743   -0.2171538569
C        3.3824520756   -1.6530253005   -1.7135338488
C       -0.8743987262   -0.4707609737   -1.1469970325
C       -0.0284022049   -1.6789077656   -0.7560494253
H        2.9116246832    0.0285634926   -0.4534343089
H        1.2399791670   -0.8349757833    0.7902995421
H        3.3330578661   -1.3801560252   -2.7716408495
H        3.1386524375   -2.7149617172   -1.6127286619
H        4.4029975447   -1.4916176212   -1.3537937653
H       -0.3686575917    0.1133567794   -1.9221926102
H       -1.0447989716    0.1698908053   -0.2759155352
H       -1.8436335261   -0.8014911146   -1.5324870954
H       -0.5521491437   -2.2623412752    0.0078657893
H        0.1227307275   -2.3215930557   -1.6293536435
15   

C        2.4586566581   -0.7799995848   -0.8202286628
C        1.3375753500   -1.1406327736   -0.1543898557
C        3.3012202945   -1.6572509270   -1.7196575644
C       -0.8889070088   -0.4954324502   -1.0774725376
C        0.0474580380   -1.6562206776   -0.7552464257
H        3.0362788937   -0.0003286374   -0.3350089832
H        1.2096895141   -0.6934149455    0.8257714159
H        3.2221654170   -1.3146693195   -2.7554960316
H        2.9619202503   -2.6961964054   -1.6657623631
H        4.3504396357   -1.6153333744   -1.4125384761
H       -0.4183693499    0.1826029781   -1.7965329657
H       -1.1282308646    0.0641112554   -0.1677260232
H       -1.8196408729   -0.8744916022   -1.5104682801
H       -0.4374297578   -2.3381058742   -0.0494979127
H        0.2642416901   -2.2152509843   -1.6712654300
15   

C        2.5138212965   -0.7852841050   -0.7248321681
C        1.3526283772   -1.0710969314   -0.1035017083
C        3.2401527660   -1.6516475141   -1.7252620886
C       -0.8787234361   -0.5176969789   -1.0639935048
C        0.1027505786   -1.6384091936   -0.7347261905
H        3.1500028149   -0.0738011195   -0.2091074320
H        1.1980542170   -0.5966453805    0.8598435333
H        3.1347068393   -1.2309010592   -2.7294966462
H        2.8315547568   -2.6666932339   -1.7230046893
H        4.3037835674   -1.7044067690   -1.4746334601
H       -0.4253255015    0.1874091552   -1.7679412981
H       -1.1603690729    0.0218946228   -0.1543639856
H       -1.7829072373   -0.9337906118   -1.5187424324
H       -0.3641143127   -2.3482164135   -0.0445554779
H        0.3576829121   -2.1781613066   -1.6522550837
15   

C        2.5561628544   -0.8140512040   -0.6487534651
C        1.3571190314   -1.0128242777   -0.0739639107
C        3.1924969110   -1.6343942060   -1.7421561437
C       -0.8451418850   -0.5312424559   -1.1269080523
C        0.1331565492   -1.6246623341   -0.7090658792
H        3.2375439286   -0.1717051702   -0.1010545597
H        1.1934797059   -0.5263089276    0.8817992857
H        3.0576137716   -1.1385498417   -2.7078517982
H        2.7450405255   -2.6314977141   -1.7895956750
H        4.2637437882   -1.7466649019   -1.5507119356
H       -0.3769447379    0.1368988942   -1.8566870322
H       -1.1545761019    0.0559412131   -0.2565889923
H       -1.7343523214   -0.9786748008   -1.5814835049
H       -0.3502917139   -2.2957699391    0.0078922919
H        0.4119846027   -2.2158509068   -1.5865583276
15   

C        2.5950509397   -0.8605971049   -0.5973056442
C        1.3552621282   -0.9499445984   -0.0894228483
C        3.1754760651   -1.6369920841   -1.7499758663
C       -0.8785897497   -0.5409447143   -1.1028360988
C        0.1460719659   -1.6006631993   -0.7101709436
H        3.3039294776   -0.2763224194   -0.0202595200
H        1.1797314466   -0.4213676152    0.8415903613
H        3.0192420917   -1.0910965113   -2.6850023162
H        2.7075924403   -2.6224047738   -1.8301917252
H        4.2499417802   -1.7792604080   -1.6013238909
H       -0.4473313614    0.1486481948   -1.8354684666
H       -1.1950368286    0.0286187137   -0.2234403232
H       -1.7581082806   -1.0176420003   -1.5464590331
H       -0.3009480825   -2.2937531959    0.0095021547
H        0.4283748679   -2.1749082139   -1.5974136736
15   

C        2.6215789214   -0.9209637067   -0.5384793496
C        1.3553191364   -0.8997938485   -0.0946607957
C        3.1620882680   -1.6334934833   -1.7499135504
C       -0.8295595489   -0.5455148035   -1.2309725489
C        0.1518582677   -1.5814066917   -0.6922834593
H        3.3364028167   -0.3266783615    0.0207186901
H        1.1745453912   -0.3306699097    0.8110717670
H        4.0926206903   -1.1607747303   -2.0777337849
H        2.4456442622   -1.5902335344   -2.5754348889
H        3.3656879414   -2.6809177097   -1.5086765637
H       -0.3559810504    0.0545748686   -2.0142412898
H       -1.1605335922    0.1189306555   -0.4265233636
H       -1.7063405541   -1.0458008012   -1.6535803606
H       -0.3411643237   -2.1805509603    0.0798069377
H        0.4504920327   -2.2598683587   -1.4969429291
15   

C        2.6382275601   -0.9874289253   -0.4970521143
C        1.3537414163   -0.8493666195   -0.1314755761
C        3.1723854545   -1.6360527949   -1.7471626238
C       -0.8576548291   -0.5480902048   -1.2345687251
C        0.1500260188   -1.5587287161   -0.6965001268
H        3.3644631325   -0.4463220372    0.1001600614
H        1.1705983933   -0.2399302214    0.7471711162
H        4.1017327704   -1.1472969818   -2.0542393613
H        2.4520845197   -1.5501041220   -2.5660789723
H        3.3761981229   -2.6947380328   -1.5617594191
H       -0.4083380740    0.0453759539   -2.0369248095
H       -1.1848151171    0.1250654259   -0.4358433218
H       -1.7337357909   -1.0697624607   -1.6320910622
H       -0.3202222775   -2.1512795863    0.0946609854
H        0.4453763142   -2.2465267830   -1.4945508459
15   

C        2.6493203642   -1.0582482440   -0.4696822067
C        1.3591320631   -0.8036372281   -0.1897052184
C        3.2062787545   -1.6417884333   -1.7433231483
C       -0.9065937321   -0.5466122441   -1.1970096352
C        0.1462692589   -1.5359306173   -0.7078342462
H        3.3754958255   -0.5662056387    0.1686582031
H        1.1769301912   -0.1409627364    0.6497656730
H        4.1432770144   -1.1419014475   -2.0060974053
H        2.5010101071   -1.5098706616   -2.5693437307
H        3.4018883698   -2.7099300123   -1.6109996346
H       -0.5054185811    0.0605518440   -2.0145221908
H       -1.2157615792    0.1151604299   -0.3818487087
H       -1.7860502480   -1.0870867346   -1.5605684064
H       -0.2763585166   -2.1440080864    0.0982886769
H        0.4252725830   -2.2104852662   -1.5231667170
15   

C        2.6547186892   -1.1314100546   -0.4575390815
C        1.3706826846   -0.7701340745   -0.2670733459
C        3.2662222370   -1.6460291784   -1.7389919245
C       -0.9574235721   -0.5447884512   -1.1445917452
C        0.1383665772   -1.5181182867   -0.7216335366
H        3.3674170351   -0.6840544908    0.2272225912
H        1.1955288449   -0.0467775629    0.5223612510
H        4.2125889302   -1.1337347567   -1.9361594140
H        2.5929348723   -1.4701951358   -2.5834798172
H        3.4567603447   -2.7200971476   -1.6569967469
H       -0.6126225057    0.0741359278   -1.9788872301
H       -1.2332831954    0.1064738716   -0.3093575598
H       -1.8456338604   -1.0989623153   -1.4635478541
H       -0.2273272112   -2.1412694697    0.1006717333
H        0.3863819034   -2.1783201122   -1.5587880694
15   

C        2.6322763615   -1.2128152787   -0.4682338122
C        1.3606485415   -0.7654941447   -0.3585020237
C        3.3354913951   -1.6467012173   -1.7357276380
C       -1.0253505401   -0.5335294500   -1.0825604806
C        0.0932923599   -1.5084043168   -0.7276899144
H        3.3149254882   -0.8077303981    0.2713303077
H        1.2062407465    0.0171507701    0.3769347250
H        4.2890188421   -1.1200439755   -1.8375918311
H        2.7170086211   -1.4232842807   -2.6104077827
H        3.5276314361   -2.7231778236   -1.7063580478
H       -0.7334514362    0.0810026035   -1.9400114163
H       -1.2456636021    0.1217673485   -0.2341675129
H       -1.9334379255   -1.0866302327   -1.3418387173
H       -0.2188484661   -2.1308205268    0.1169605713
H        0.2875108160   -2.1682121324   -1.5794550973
15   

C        2.6108296485   -1.2923018076   -0.5147432211
C        1.3471520620   -0.7909623224   -0.4775920429
C        3.4428644883   -1.6432349386   -1.7320459790
C       -1.0947093754   -0.5178062089   -0.9959361577
C        0.0363365049   -1.5098985856   -0.7402647845
H        3.2412696315   -0.9162605999    0.2842204440
H        1.2234359853    0.0603643912    0.1837057764
H        4.3928456544   -1.1009324944   -1.7110584034
H        2.9064323423   -1.3760144135   -2.6475691911
H        3.6489909174   -2.7173866786   -1.7464019355
H       -0.8666477184    0.0969786356   -1.8724145253
H       -1.2350729834    0.1360264949   -0.1296901992
H       -2.0286957674   -1.0572552615   -1.1814594996
H       -0.2115237518   -2.1367562285    0.1222280331
H        0.1494356713   -2.1635575064   -1.6111717462
15   

C        2.5863756649   -1.3695261418   -0.5843765006
C        1.3240329274   -0.8417411049   -0.6107319495
C        3.5568764243   -1.6376178147   -1.7219315120
C       -1.1540904820   -0.4992601104   -0.9074717198
C       -0.0303147194   -1.5212723827   -0.7560024768
H        3.1357719088   -1.1071143412    0.3136650607
H        1.2375880569    0.0725343680   -0.0328742392
H        3.4472963328   -0.8730508169   -2.4966673329
H        3.3529450839   -2.6174035556   -2.1633826002
H        4.5879379952   -1.6233741313   -1.3562304581
H       -0.9884429365    0.1138209073   -1.7990877842
H       -1.2012539645    0.1535590855   -0.0304903108
H       -2.1142712707   -1.0139341223   -1.0117969607
H       -0.2163140390   -2.1498897696    0.1206416972
H       -0.0133256887   -2.1696613901   -1.6378681315
