13   
Generated by ForceBalance from scan.xyz: Frame 1 of 24
C       -0.1461362238   -1.3613386518   -1.8019094188
C        0.0678469897   -2.7318708437   -1.7826474712
C        0.1512547201   -0.9472025461   -0.4723924132
C       -0.5714784833    1.2794872891   -0.6987373707
N        0.5054649967   -1.9664557687    0.3090035427
N        0.4556690229   -3.0427555578   -0.5204366205
O        0.1220006778    0.2975001767    0.0676948460
H       -0.4605629365   -0.7647881697   -2.6457129222
H       -0.0250106460   -3.4807523920   -2.5581967039
H       -0.5780086863    2.1868327950   -0.0931849846
H       -1.6026818296    0.9664602020   -0.9034508161
H       -0.0571150420    1.4830183150   -1.6467278243
H        0.6904818127   -3.9509433494   -0.1464299700
13   
Generated by ForceBalance from scan.xyz: Frame 2 of 24
C       -0.0368998191   -1.3495766875   -1.8606979936
C        0.0864317441   -2.7291316648   -1.7981032338
C        0.2267136934   -0.9181023620   -0.5296749450
C       -0.5988750667    1.2811377234   -0.6740588838
N        0.4730518894   -1.9360311551    0.2931707362
N        0.3963318450   -3.0294444543   -0.5109585207
O        0.2652556705    0.3446223566   -0.0300674455
H       -0.2713053860   -0.7557584362   -2.7322932381
H       -0.0171093084   -3.4919674624   -2.5586313646
H       -0.5450530985    2.1978171602   -0.0846681718
H       -1.6320654250    0.9144841460   -0.6940404116
H       -0.2677853323    1.4948057273   -1.6982857776
H        0.5572349964   -3.9399343776   -0.1048041928
13   
Generated by ForceBalance from scan.xyz: Frame 3 of 24
C        0.0764459572   -1.3641016436   -1.9246204956
C        0.1108462617   -2.7450730902   -1.8171490390
C        0.2820904472   -0.9067316183   -0.5924438252
C       -0.6247950134    1.2646802446   -0.6310911191
N        0.4160050954   -1.9113181976    0.2714519786
N        0.3221228777   -3.0231865658   -0.5039242396
O        0.3774319921    0.3717904149   -0.1375069239
H       -0.0606214323   -0.7821945157   -2.8248426970
H        0.0122768006   -3.5243135864   -2.5616028734
H       -0.4768356320    2.2087460411   -0.1038335816
H       -1.6294540053    0.8784084777   -0.4226378740
H       -0.5168342428    1.4358538696   -1.7094202808
H        0.4083933552   -3.9284965131   -0.0647181831
13   
Generated by ForceBalance from scan.xyz: Frame 4 of 24
C        0.1897321270   -1.3768427494   -1.9796502362
C        0.1447542728   -2.7527435796   -1.8292005425
C        0.3112853486   -0.8848859852   -0.6501368237
C       -0.6667188602    1.2517136036   -0.5753085712
N        0.3283028766   -1.8647258138    0.2516431901
N        0.2350305778   -2.9956447128   -0.4937127428
O        0.4417865512    0.4081622900   -0.2422340738
H        0.1579173602   -0.8151484895   -2.9025754486
H        0.0703264803   -3.5524502080   -2.5545615966
H       -0.4307946823    2.2388889737   -0.1736167982
H       -1.5898688775    0.8773137216   -0.1171794467
H       -0.8032130346    1.3257075610   -1.6612682483
H        0.2535347915   -3.8894195486   -0.0236815598
13   
Generated by ForceBalance from scan.xyz: Frame 5 of 24
C        0.2916159031   -1.4008933572   -2.0371618223
C        0.1726454092   -2.7664992605   -1.8405772553
C        0.3358679857   -0.8615754050   -0.7226220181
C       -0.6921735386    1.2395611914   -0.5229308593
N        0.2435714258   -1.8045185577    0.2142244706
N        0.1476989417   -2.9582082500   -0.4930249715
O        0.4918566862    0.4457153306   -0.3691120967
H        0.3561193514   -0.8710890549   -2.9771436053
H        0.1179796999   -3.5919616691   -2.5383147302
H       -0.4231123870    2.2541031141   -0.2226099787
H       -1.4954946893    0.8639144996    0.1217770212
H       -1.0333897893    1.2450002737   -1.5657246689
H        0.0972860534   -3.8331872903    0.0091996046
13   
Generated by ForceBalance from scan.xyz: Frame 6 of 24
C        0.3848171281   -1.4335612262   -2.0938819977
C        0.2094163102   -2.7856628764   -1.8493460040
C        0.3469592869   -0.8377483692   -0.8052753061
C       -0.7097789716    1.2296215963   -0.4642247778
N        0.1602950107   -1.7358585140    0.1621967035
N        0.0762265128   -2.9158474724   -0.5005145300
O        0.5146777725    0.4827440255   -0.5099042096
H        0.5332753859   -0.9442966182   -3.0461072432
H        0.1806122059   -3.6400921217   -2.5128756625
H       -0.4331116732    2.2602154630   -0.2332140878
H       -1.3718590927    0.8399232390    0.3173104998
H       -1.2252655329    1.1954131608   -1.4324142244
H       -0.0402636121   -3.7659615597    0.0326329115
13   
Generated by ForceBalance from scan.xyz: Frame 7 of 24
C        0.4669013551   -1.4705324736   -2.1441580991
C        0.2580259485   -2.8092347325   -1.8539674919
C        0.3272825916   -0.8157996577   -0.8929067527
C       -0.7245030888    1.2286182238   -0.4041973838
N        0.0551753120   -1.6675371172    0.0968656752
N        0.0088856809   -2.8757395494   -0.5172780318
O        0.4959913419    0.5159827018   -0.6578781858
H        0.6959995836   -1.0242268567   -3.1013053256
H        0.2713116091   -3.6926426999   -2.4788359075
H       -0.4429637742    2.2718197537   -0.2479808461
H       -1.2229886748    0.8407766427    0.4903840713
H       -1.4014516971    1.1542609017   -1.2646009421
H       -0.1654324726   -3.6990166104    0.0415304513
13   
Generated by ForceBalance from scan.xyz: Frame 8 of 24
C        0.5489913978   -1.5122003839   -2.1754142508
C        0.3163286383   -2.8371364259   -1.8427041447
C        0.2953842413   -0.8018531873   -0.9738740617
C       -0.7166909123    1.2306162109   -0.3459613544
N       -0.0594764573   -1.6085878101    0.0275668937
N       -0.0505527022   -2.8450011392   -0.5324229241
O        0.4572220093    0.5382232544   -0.7997299175
H        0.8584954678   -1.1077127942   -3.1283600660
H        0.3827035634   -3.7472419021   -2.4243288614
H       -0.4429223449    2.2857600433   -0.2880868851
H       -1.0271649162    0.8720090027    0.6401360716
H       -1.5387931897    1.1000823582   -1.0602572062
H       -0.2899116092   -3.6408622277    0.0415245456
13   
Generated by ForceBalance from scan.xyz: Frame 9 of 24
C        0.6129192550   -1.5367729348   -2.2012404009
C        0.3663152851   -2.8512315157   -1.8396534816
C        0.2391453470   -0.7863243506   -1.0562846798
C       -0.7192263051    1.2290355222   -0.2922869947
N       -0.1939151865   -1.5599459767   -0.0598878554
N       -0.1169425130   -2.8182867073   -0.5686828571
O        0.3783153473    0.5588708360   -0.9316441231
H        1.0004408374   -1.1630338679   -3.1379715978
H        0.4936022877   -3.7800610575   -2.3800818747
H       -0.4962853791    2.2956767568   -0.3539463972
H       -0.8096793870    0.9260471238    0.7550106879
H       -1.6574899086    1.0125558738   -0.8159867376
H       -0.4149908747   -3.5941107786    0.0048135580
13   
Generated by ForceBalance from scan.xyz: Frame 10 of 24
C        0.6650347967   -1.5544177757   -2.2100393126
C        0.4095950579   -2.8589558595   -1.8218899199
C        0.1829788601   -0.7716552308   -1.1278282883
C       -0.7125433605    1.2259508330   -0.2501599176
N       -0.3207340104   -1.5168341805   -0.1436806203
N       -0.1782827635   -2.7929132099   -0.5974784257
O        0.2844076339    0.5776000081   -1.0535654350
H        1.1233917954   -1.2069989197   -3.1246077354
H        0.5954236367   -3.8026544442   -2.3178257935
H       -0.5534575140    2.2968871645   -0.3860610380
H       -0.6006977746    0.9603399895    0.8053540265
H       -1.7173398485    0.9474978639   -0.5862159305
H       -0.5153642579   -3.5531745402   -0.0251736749
13   
Generated by ForceBalance from scan.xyz: Frame 11 of 24
C       -1.0902683527   -1.9966085969   -1.6008532691
C       -0.1686413808   -3.0272229057   -1.5316188514
C       -0.3655823591   -0.8566762578   -1.1607719061
C       -0.0921601434    1.3476930238   -0.3721927376
N        0.8985701055   -1.1430611298   -0.8502671094
N        0.9934026616   -2.4837240425   -1.0810002091
O       -0.8770786718    0.3944772648   -1.1015914651
H       -2.1229631579   -2.0436860826   -1.9146911083
H       -0.2564738882   -4.0808701462   -1.7623245767
H       -0.6783124668    2.2677538222   -0.3632901019
H        0.8714675593    1.5176065831   -0.8625605209
H        0.0854639747    0.9996427220    0.6507689838
H        1.8708371573   -2.9478784080   -0.8980849243
13   
Generated by ForceBalance from scan.xyz: Frame 12 of 24
C       -1.0914755747   -1.9959236884   -1.6326459111
C       -0.1601551862   -3.0181319994   -1.5736798291
C       -0.4045948380   -0.8738211481   -1.0957721956
C       -0.0861511375    1.3539463560   -0.3972540523
N        0.8445963217   -1.1637669950   -0.7331777604
N        0.9702847758   -2.4883297239   -1.0350806209
O       -0.9479309953    0.3572314433   -0.9625264272
H       -2.1066462179   -2.0371126882   -1.9999231394
H       -0.2214830486   -4.0576667243   -1.8681903832
H       -0.6773942388    2.2700729986   -0.3641518296
H        0.8029464458    1.4972584469   -1.0197521148
H        0.2292601302    1.0680748333    0.6113830118
H        1.8496961921   -2.9477733769   -0.8501877594
13   
Generated by ForceBalance from scan.xyz: Frame 13 of 24
C       -1.0719660993   -1.9828459732   -1.6530741912
C       -0.1407935417   -3.0063262828   -1.6109097806
C       -0.4149436933   -0.8935238842   -1.0206696548
C       -0.0751710534    1.3604526243   -0.4205778197
N        0.8146880420   -1.2058432448   -0.6119999210
N        0.9618337027   -2.5074566625   -0.9911301903
O       -0.9795895385    0.3178715703   -0.8102201424
H       -2.0683408624   -2.0027667620   -2.0702168530
H       -0.1831150967   -4.0259136066   -1.9711292324
H       -0.6771989725    2.2686427761   -0.3664858177
H        0.7227807341    1.4763515261   -1.1615124153
H        0.3731030967    1.1449718822    0.5543688362
H        1.8378458818   -2.9726186075   -0.8039819975
13   
Generated by ForceBalance from scan.xyz: Frame 14 of 24
C       -1.0647715306   -1.9546797071   -1.6699319236
C       -0.1412650861   -2.9864144424   -1.6501386188
C       -0.4365873977   -0.9150520217   -0.9345202689
C       -0.1027202038    1.3670245845   -0.4411805271
N        0.7685937249   -1.2648316580   -0.4842314891
N        0.9303089884   -2.5363953418   -0.9441936562
O       -1.0134018320    0.2773334793   -0.6484818385
H       -2.0388187125   -1.9386689649   -2.1370531782
H       -0.1680687848   -3.9792874825   -2.0797153050
H       -0.7242557198    2.2573435400   -0.3329771129
H        0.5675344636    1.4762379224   -1.3007874571
H        0.4947258257    1.2136517700    0.4625345389
H        1.7951420969   -3.0185577488   -0.7473734626
13   
Generated by ForceBalance from scan.xyz: Frame 15 of 24
C       -1.0285490051   -1.9166385538   -1.6888526472
C       -0.1220961308   -2.9643473964   -1.6871692822
C       -0.4333946559   -0.9419271541   -0.8465149799
C       -0.1218632347    1.3672242007   -0.4795700059
N        0.7375004168   -1.3445080079   -0.3507767645
N        0.9109258064   -2.5803696753   -0.8900472284
O       -1.0090505101    0.2380636616   -0.4990199330
H       -1.9726602208   -1.8508889677   -2.2100518488
H       -0.1357333819   -3.9257897780   -2.1835886437
H       -0.7480580324    2.2371303704   -0.2737417222
H        0.3712448123    1.4834442389   -1.4515948163
H        0.6362960088    1.2592126608    0.3016650113
H        1.7536910063   -3.0922894037   -0.6725222755
13   
Generated by ForceBalance from scan.xyz: Frame 16 of 24
C       -0.9766768212   -1.8593516245   -1.7074415239
C       -0.0949819797   -2.9282899318   -1.7223084237
C       -0.4213181383   -0.9637036925   -0.7576727234
C       -0.1452877256    1.3647795035   -0.5296395272
N        0.7061906277   -1.4299101959   -0.2183225761
N        0.8905454168   -2.6253112809   -0.8343305737
O       -0.9821431985    0.2100532805   -0.3575821130
H       -1.8832326046   -1.7335956738   -2.2817717844
H       -0.0954535611   -3.8534209814   -2.2836633223
H       -0.7350661709    2.2194484184   -0.1930168292
H        0.1203605202    1.4914866710   -1.5863134113
H        0.7659659642    1.2819549367    0.0704156149
H        1.6946823044   -3.1827288116   -0.5838415874
13   
Generated by ForceBalance from scan.xyz: Frame 17 of 24
C       -0.9169290602   -1.7908472541   -1.7116268430
C       -0.0665963592   -2.8840951960   -1.7524484405
C       -0.3982634839   -0.9841603736   -0.6657017820
C       -0.1786976965    1.3542731387   -0.5747579361
N        0.6820180763   -1.5229058516   -0.0983331095
N        0.8694231528   -2.6765809755   -0.7860202114
O       -0.9301581729    0.1856935804   -0.2119507505
H       -1.7847400646   -1.5983634014   -2.3261682795
H       -0.0600858999   -3.7689325234   -2.3754019815
H       -0.7204612561    2.2071947693   -0.1612748877
H       -0.1169032322    1.4506505264   -1.6660809438
H        0.8304992528    1.3151137443   -0.1514939928
H        1.6326977545   -3.2826755511   -0.5205233738
13   
Generated by ForceBalance from scan.xyz: Frame 18 of 24
C       -0.8435344116   -1.7179501801   -1.7101217843
C       -0.0381353257   -2.8432241787   -1.7718597165
C       -0.3556767266   -1.0006436339   -0.5856475626
C       -0.2228002655    1.3420253370   -0.6162356496
N        0.6682618556   -1.6184030221    0.0036879139
N        0.8448669164   -2.7378901580   -0.7407083672
O       -0.8500851890    0.1665360819   -0.0833969246
H       -1.6666331506   -1.4534800252   -2.3587512949
H       -0.0336613670   -3.6900639304   -2.4456528900
H       -0.7159670087    2.1944055508   -0.1447893308
H       -0.3544202222    1.3965859305   -1.7043444203
H        0.8462717331    1.3531060070   -0.3754772546
H        1.5620405439   -3.3950311738   -0.4680723868
13   
Generated by ForceBalance from scan.xyz: Frame 19 of 24
C       -0.7576603195   -1.6437244908   -1.7094038551
C       -0.0142289663   -2.8097691907   -1.7822991934
C       -0.2934274347   -1.0071490078   -0.5261370581
C       -0.2716848271    1.3368485519   -0.6542224617
N        0.6621226351   -1.7076003617    0.0834584467
N        0.8126405768   -2.8042214313   -0.7008416801
O       -0.7422894475    0.1601327015    0.0163174056
H       -1.5284446096   -1.3071692894   -2.3884038445
H       -0.0208294386   -3.6241744723   -2.4949824525
H       -0.7149333726    2.1865080391   -0.1312621749
H       -0.5882374025    1.3481085759   -1.7047198079
H        0.8216419093    1.3999746583   -0.6019805578
H        1.4740835899   -3.5145113922   -0.4209532284
13   
Generated by ForceBalance from scan.xyz: Frame 20 of 24
C       -0.6607601472   -1.5737129185   -1.7138887784
C        0.0072919056   -2.7845949496   -1.7862305869
C       -0.2264618581   -1.0093762926   -0.4820969849
C       -0.3237595799    1.3310368972   -0.6824713905
N        0.6444729947   -1.7915944573    0.1528754199
N        0.7633451675   -2.8734154464   -0.6587678064
O       -0.6211348866    0.1621392137    0.0898933714
H       -1.3641472693   -1.1674420870   -2.4269765350
H       -0.0100422448   -3.5710868006   -2.5294323673
H       -0.6765243036    2.1819743522   -0.0968145356
H       -0.8424102069    1.3166100452   -1.6490160015
H        0.7561338608    1.4201670101   -0.8502489534
H        1.3642197507   -3.6324105990   -0.3707030356
13   
Generated by ForceBalance from scan.xyz: Frame 21 of 24
C       -0.5525972469   -1.5096516664   -1.7280887828
C        0.0357541721   -2.7623818772   -1.7936996821
C       -0.1646734000   -1.0102782854   -0.4527979467
C       -0.3900764437    1.3188290643   -0.7044256478
N        0.6095478365   -1.8665100610    0.2111596309
N        0.7046027845   -2.9345262404   -0.6234047385
O       -0.5020023799    0.1680918146    0.1373660305
H       -1.1742799058   -1.0398707364   -2.4768396719
H        0.0176337599   -3.5230270196   -2.5632681511
H       -0.5928656745    2.1817807211   -0.0677613477
H       -1.1236971781    1.2949792686   -1.5198861930
H        0.6192256531    1.3988425688   -1.1250282223
H        1.2433076640   -3.7351638975   -0.3255763292
13   
Generated by ForceBalance from scan.xyz: Frame 22 of 24
C       -0.4400383515   -1.4429172237   -1.7347198468
C        0.0576710059   -2.7358320670   -1.7891004090
C       -0.0853447617   -0.9903591159   -0.4321576941
C       -0.4392230326    1.3180457024   -0.7239419390
N        0.5889756838   -1.9092399396    0.2569623927
N        0.6486423908   -2.9710930484   -0.5897787893
O       -0.3502452750    0.2021435767    0.1622596649
H       -0.9791001820   -0.9196067222   -2.5111235469
H        0.0278706466   -3.4816050125   -2.5726671918
H       -0.5275190302    2.2018376988   -0.0901479161
H       -1.3252565169    1.2500381604   -1.3678633142
H        0.4591520024    1.3984031455   -1.3474652924
H        1.1165576014   -3.8105315666   -0.2795508209
13   
Generated by ForceBalance from scan.xyz: Frame 23 of 24
C       -0.3228884222   -1.4022851933   -1.7466947255
C        0.0808675379   -2.7288986629   -1.7866669516
C        0.0128641288   -0.9792931570   -0.4291578267
C       -0.4723589850    1.3023605363   -0.7297025122
N        0.5855847017   -1.9479846021    0.2839744813
N        0.6048821464   -3.0083294559   -0.5670110758
O       -0.1729233541    0.2291800181    0.1598249692
H       -0.7888123451   -0.8407850937   -2.5431713580
H        0.0295290715   -3.4681716904   -2.5751853600
H       -0.5030778581    2.2040586018   -0.1165059684
H       -1.4482830520    1.1613362152   -1.2117472620
H        0.3024738055    1.4070025734   -1.4990887008
H        0.9998733480   -3.8794516161   -0.2430479163
13   
Generated by ForceBalance from scan.xyz: Frame 24 of 24
C       -0.2322073497   -1.3811532665   -1.7660930102
C        0.0755366300   -2.7340593875   -1.7826987485
C        0.0874340848   -0.9715265320   -0.4402996485
C       -0.5205894945    1.2827512105   -0.7167798193
N        0.5519986524   -1.9752210618    0.3027503639
N        0.5338094948   -3.0394968911   -0.5433688339
O       -0.0173903861    0.2543128616    0.1315189422
H       -0.6235627613   -0.7945974827   -2.5841880049
H        0.0010447330   -3.4741749282   -2.5685374469
H       -0.5425109057    2.1901108825   -0.1118234293
H       -1.5358733763    1.0515214624   -1.0631562601
H        0.1337484443    1.4389081364   -1.5837948675
H        0.8489574228   -3.9348015565   -0.1985000872
