15

C      0.84529   -0.30899    0.56437
C      2.48513   -2.08525    0.25132
C      1.00668   -0.43222    1.93326
C      1.59062   -1.14159   -0.28941
C      2.59751   -2.15047    1.62225
N      1.87018   -1.34944    2.42163
O      3.32729   -2.88681    3.98811
O      5.02941   -2.49315    2.05493
S      3.67316   -3.30913    2.60441
Cl     1.41538   -1.00749   -1.98623
H      0.15055    0.42204    0.16582
H      3.07923   -2.73041   -0.38789
H      0.46958    0.17494    2.65379
H      2.03849   -1.46769    3.43653
H      5.83247   -3.01618    2.26235
