25

C      1.06192    0.26839    3.65026
C      0.87754    0.00575    2.33841
C      3.14114   -0.56392    2.50889
C     -0.27445    0.92658    0.29178
C     -1.35566    2.44104   -1.16132
C      6.33517   -0.77545    0.46817
C     -0.40718    0.11458    1.57255
N      4.36229   -0.93083    2.23381
N      2.03047   -0.46884    1.71333
O      0.68223    0.87223   -0.45666
O      4.90004   -2.98354    0.78916
O      3.79719   -0.98474   -0.30558
O     -1.36706    1.68115    0.07193
S      2.71143   -0.07383    4.15491
S      4.72306   -1.52934    0.71752
H      0.32292    0.61589    4.35846
H     -2.30541    2.97399   -1.17943
H     -1.26972    1.76830   -2.01704
H     -0.51686    3.13992   -1.16364
H      6.70729   -1.14876   -0.48742
H      6.21417    0.30755    0.44438
H      6.98455   -1.08563    1.28671
H     -1.18426    0.53867    2.20860
H     -0.74162   -0.88642    1.26809
H      2.13966   -0.52323    0.69532
