11

C      0.17083    0.36287    0.33500
C     -0.37038   -2.18666   -0.84372
N      1.02187    1.33549    0.45102
N      0.56420    2.47790    1.16723
S     -1.49931    0.28482    0.81193
S      1.01746   -1.07477   -0.44428
H      0.08143   -3.09963   -1.25020
H     -1.03879   -1.74323   -1.58588
H     -0.95048   -2.41674    0.05181
H     -0.46490    2.45869    1.19608
H      0.86071    3.28508    0.61871
