25

C      4.14907    1.99144   -4.86938
C      4.04179    1.09576   -3.84197
C      5.91625    0.33812   -4.74590
C      2.10123   -0.23954   -2.88702
C      1.09454   -1.84291   -4.29684
C      5.92880   -2.34244   -6.53566
C      2.93834    1.03192   -2.82770
N      5.05310    0.15249   -3.78476
N      7.08171   -0.43303   -4.86774
O      1.62684   -0.79059   -1.91430
O      7.38403   -0.30045   -7.39090
O      8.53742   -2.13546   -6.02138
O      1.90856   -0.65938   -4.15769
S      5.57859    1.68590   -5.81126
S      7.38407   -1.29268   -6.32026
H      3.46027    2.77874   -5.14723
H      1.04927   -2.03995   -5.36789
H      0.09409   -1.66706   -3.89483
H      1.55166   -2.68180   -3.76711
H      6.05314   -2.85567   -7.49073
H      5.89084   -3.05742   -5.71318
H      5.04157   -1.70829   -6.55402
H      3.33868    1.09353   -1.81316
H      2.25566    1.87685   -2.96517
H      7.23224   -1.02522   -4.05091
