24

C      4.19552    1.66275   -4.35622
C      3.44942    0.53499   -4.16568
C      5.17506   -0.48447   -5.17948
C      1.19281   -0.33409   -4.51490
C      0.99580   -2.56255   -5.30562
C      5.09380   -3.55676   -4.28701
C      2.05905    0.47898   -3.56687
N      3.99295   -0.64995   -4.60282
N      6.00741   -1.37703   -5.73298
O      0.57166    0.12827   -5.45535
O      6.58146   -3.70188   -6.46637
O      4.17386   -2.98437   -6.69649
O      1.25424   -1.65012   -4.21443
S      5.70262    1.24313   -5.15678
S      5.45269   -2.90188   -5.94608
H      3.94201    2.68636   -4.11194
H      0.83260   -3.53723   -4.84191
H      1.88422   -2.59286   -5.94363
H      0.11350   -2.25211   -5.86977
H      4.76142   -4.58879   -4.42155
H      6.01651   -3.52264   -3.70435
H      4.31345   -2.93984   -3.84096
H      2.08624   -0.01316   -2.58871
H      1.64354    1.48352   -3.46700
