24

C      4.74306    1.36081   -5.06114
C      4.06544    0.73204   -4.05579
C      5.34806   -1.02651   -4.61006
C      2.10804    2.27866   -4.00177
C      0.27372    2.36555   -5.48448
C      5.59100   -3.26108   -7.07303
C      2.99259    1.36614   -3.18861
N      4.38723   -0.58018   -3.80827
N      5.81515   -2.28794   -4.54222
O      2.26915    3.47762   -4.15856
O      7.27614   -4.19397   -5.26563
O      7.71800   -1.91939   -6.28539
O      1.08498    1.59671   -4.58407
S      5.92556    0.27759   -5.75688
S      6.74780   -2.89071   -5.71359
H      4.63859    2.38520   -5.39590
H     -0.47455    1.67156   -5.87026
H      0.88184    2.76359   -6.30150
H     -0.20717    3.19754   -4.96191
H      6.17070   -3.67996   -7.89886
H      4.85858   -3.98164   -6.70577
H      5.10514   -2.33216   -7.37971
H      2.39756    0.56108   -2.75331
H      3.43879    1.95777   -2.38325
