25

C      1.01002    0.16827    3.03543
C      1.02234   -0.28352    1.76293
C      3.24782   -0.74002    2.33614
C     -0.33413   -1.68650    0.17714
C      0.73224   -3.37402   -1.13038
C      6.11283   -3.12092    1.55654
C     -0.11411   -0.30143    0.77858
N      4.47923   -1.17458    2.29987
N      2.27513   -0.76027    1.37683
O     -1.30783   -2.38455    0.35815
O      3.98406   -2.46812    0.09700
O      5.92452   -0.84878    0.19337
O      0.73033   -2.03343   -0.58178
S      2.58770   -0.00018    3.79989
S      5.07104   -1.82278    0.88186
H      0.17631    0.60046    3.57056
H      1.72216   -3.49899   -1.56548
H     -0.05030   -3.46499   -1.88650
H      0.56308   -4.10209   -0.33519
H      6.60728   -3.59553    0.70739
H      6.84113   -2.65692    2.22151
H      5.48311   -3.83144    2.09183
H      0.09861    0.39637   -0.04003
H     -1.03403    0.00569    1.27418
H      2.42746   -1.29495    0.51761
