15

C     -3.45497    0.02521   -0.41711
C     -0.97445   -0.48415   -0.50799
C     -5.86288   -0.38069    0.03157
C     -2.09109    0.26809    0.22448
N     -4.48430   -0.19454    0.46044
O     -3.61286    0.04084   -1.63767
H     -1.10656   -1.56753   -0.42008
H     -0.98362   -0.22973   -1.57019
H      0.00374   -0.22440   -0.09115
H     -6.49402    0.46201    0.33755
H     -6.27697   -1.30561    0.44711
H     -5.86467   -0.44550   -1.05682
H     -1.90504    1.34760    0.16862
H     -2.10377    0.00302    1.28835
H     -4.28305   -0.17299    1.45043
