18

C     -0.82737   -0.54586    1.84558
C     -0.42202   -0.66006    0.54386
C     -1.14507   -1.68888    2.64223
C     -0.29311   -1.95552   -0.10025
C     -1.02150   -2.90933    2.05134
C     -0.32860   -4.75166    3.37153
C     -0.87705   -5.98236    4.04040
N     -0.62255   -3.03508    0.75629
O      0.05336   -2.18110   -1.25971
O      0.80660   -4.35050    3.39136
O     -1.34963   -4.09523    2.68459
H     -0.91308    0.44024    2.29531
H     -0.18140    0.20523   -0.06372
H     -1.46435   -1.61267    3.67392
H     -1.66342   -5.70000    4.74616
H     -0.07267   -6.49925    4.56210
H     -1.32840   -6.64275    3.29459
H     -0.54171   -3.96048    0.34568
