17

C      2.13320   -0.13688   -0.36426
C      0.83015    0.33858   -0.66651
C      3.19237    0.45319   -1.00171
C      0.58875    1.36565   -1.55668
C      1.71363    1.98357   -2.27736
C     -0.80020    1.87978   -1.77276
C     -1.96508    0.98381   -1.36032
N      2.97704    1.44893   -1.89855
O      1.68677    2.84790   -3.14347
O     -1.01316    2.98669   -2.24365
H      2.29667   -0.93331    0.35153
H     -0.00873   -0.12224   -0.15320
H      4.22545    0.16578   -0.83143
H     -2.04862    0.93234   -0.26858
H     -1.85334   -0.03767   -1.73690
H     -2.88358    1.42212   -1.75240
H      3.75670    1.87900   -2.38750
