23

C      1.78583   -0.93156   -0.18594
C      4.41507   -3.62534    6.17895
C      1.62720    0.21056    0.60638
C      1.98393   -2.17371    0.42782
C      3.07953   -3.45367    6.55868
C      4.89494   -2.97701    5.03514
C      1.67514    0.11745    2.00023
C      2.02552   -2.28154    1.82052
C      2.22526   -2.64937    5.79896
C      4.05344   -2.16349    4.27160
C      1.87547   -1.12861    2.60000
C      2.71701   -2.00948    4.65829
O      1.84446   -1.17052    3.98446
H      1.75282   -0.85580   -1.26924
H      5.07575   -4.25477    6.76860
H      1.47119    1.17996    0.14021
H      2.09941   -3.06841   -0.17863
H      2.69692   -3.95122    7.44606
H      5.93327   -3.09686    4.73662
H      1.55815    0.99267    2.63243
H      2.17241   -3.24523    2.29803
H      1.18462   -2.50663    6.07476
H      4.42578   -1.65468    3.38798
