31

C      2.29522   -0.83873    0.00234
C      0.96884   -0.88518    0.43104
C      5.42564   -7.59933    5.00711
C      6.50230   -7.49180    5.89532
C      3.29830   -1.36325    0.82502
C      0.64468   -1.42396    1.68194
C      4.90846   -6.45848    4.39914
C      7.01881   -6.21840    6.13605
C      2.99233   -1.90330    2.07400
C      1.65193   -1.91429    2.52198
C      5.51207   -5.22665    4.71266
C      4.04585   -3.74127    3.31605
C      0.10499   -2.66232    4.18001
N      6.54380   -5.10520    5.56289
N      4.01735   -2.40572    2.91701
N      5.11348   -3.99885    4.16877
O      3.22454   -4.57447    2.95892
O      1.44366   -2.38918    3.78029
H      2.54925   -0.42101   -0.96742
H      0.17529   -0.49924   -0.20328
H      4.98533   -8.56903    4.78868
H      6.92671   -8.36189    6.38675
H      4.33302   -1.37242    0.48946
H     -0.39052   -1.43721    2.00391
H      4.07044   -6.49310    3.71669
H      7.85394   -6.07821    6.82074
H      0.17914   -3.13506    5.16005
H     -0.38216   -3.34997    3.47906
H     -0.48570   -1.74141    4.26601
H      4.89828   -1.90776    2.89587
H      5.62759   -3.21854    4.56194
