22

C     -2.53224    2.76107    2.47887
C     -1.81075    3.84556    1.97451
C     -1.84247    1.59941    2.83729
C     -0.42279    3.72683    1.84151
C     -0.45730    1.60773    2.67529
C      0.66718   -0.63075    0.59861
C      2.64040    0.53556    1.54236
N      0.25222    2.62310    2.18746
N      1.42691   -0.25484    1.79489
O      1.43893    0.50941    4.20638
O     -0.47252   -0.93806    3.32528
S      0.51085    0.13335    3.14230
H     -3.61180    2.81568    2.59054
H     -2.30754    4.76655    1.68404
H     -2.34063    0.71805    3.22611
H      0.16988    4.54798    1.44291
H     -0.16479   -1.27670    0.87939
H      1.33339   -1.19288   -0.06176
H      0.29037    0.24760    0.05399
H      3.09581    0.81119    2.49227
H      2.42412    1.44287    0.96633
H      3.33902   -0.09756    0.98639
