25

C      1.59356   -1.11727    0.08483
C      1.76482    0.07740    0.79577
C      1.41932   -2.31474    0.78323
C      1.76220    0.07038    2.19183
C      1.41707   -2.31614    2.18352
C     -0.59709    1.07718    6.29250
C     -1.39680    0.84409    5.19645
C      1.59075   -1.12821    2.90481
C      0.55276   -0.21858    5.00012
C      2.99761   -0.79246    4.98988
C      1.60635   -1.13447    4.42635
N      0.60865    0.41504    6.16013
N     -0.65123    0.01007    4.38117
H      1.59497   -1.11223   -1.00208
H      1.89940    1.01394    0.26029
H      1.28393   -3.24741    0.24139
H      1.88766    1.00336    2.73654
H      1.28031   -3.25230    2.72114
H     -0.81640    1.68295    7.16231
H     -2.38562    1.18535    4.92524
H      3.30465    0.21230    4.68672
H      3.73561   -1.50844    4.61603
H      2.98219   -0.82222    6.08134
H      1.36245   -2.15470    4.75156
H     -0.90907   -0.32322    3.46112
