30

C      2.28305   -3.36046    7.53544
C      3.39504   -0.05994    0.72299
C      2.55492   -3.61582    6.18708
C      1.89099   -2.07222    7.91692
C      2.12660    0.42426    1.06622
C      4.20627   -0.58788    1.72385
C      2.43755   -2.60749    5.22850
C      1.79597   -1.05133    6.97029
C      1.67484    0.33927    2.38011
C      3.79196   -0.62562    3.06473
C      2.07176   -1.30782    5.61659
C      2.48532   -0.19263    3.40281
C      4.80841   -1.11149    4.04492
C      5.58809   -0.99475    6.26881
N      1.95713   -0.24785    4.69596
O      5.63644   -1.97183    3.79423
O      4.74364   -0.46578    5.22773
H      2.37185   -4.15135    8.27483
H      3.74376   -0.02169   -0.30471
H      2.85055   -4.61281    5.87066
H      1.67479   -1.85432    8.95986
H      1.47485    0.84279    0.30352
H      5.19845   -0.96306    1.49225
H      2.63093   -2.83156    4.18466
H      1.52970   -0.04252    7.27756
H      0.66645    0.66488    2.62717
H      5.40157   -0.36545    7.13856
H      6.63856   -0.95003    5.97285
H      5.30870   -2.02961    6.48112
H      1.16588    0.36246    4.85302
