34

C     -2.85674   -3.89451   -1.12387
C     -2.52647   -2.68249   -1.79585
C     -3.65449   -3.87886   -0.01234
C     -3.02802   -1.51197   -1.30157
C     -4.19047   -2.64895    0.53118
C     -3.14154    0.77279    0.56940
C     -2.58414   -0.50989    2.66491
C     -1.17017    1.32030    1.89959
C     -1.39769   -1.46716    2.54570
C      0.00275    0.34441    1.78970
C      1.00357   -1.65689    2.69677
C     -4.31413   -0.17698    0.29044
N     -3.82300   -1.48192   -0.18530
N     -2.43018    0.59603    1.71752
N     -0.13752   -0.75079    2.75154
O     -4.90009   -2.56890    1.54423
O     -2.86713    1.63812   -0.27038
H     -2.47064   -4.83962   -1.49877
H     -1.90061   -2.67032   -2.68054
H     -3.92254   -4.78514    0.52020
H     -2.82043   -0.54581   -1.75054
H     -3.51811   -1.04529    2.50810
H     -2.60118   -0.08694    3.67626
H     -1.17489    1.78320    2.89292
H     -1.10519    2.09791    1.13991
H     -1.49059   -2.24774    3.30813
H     -1.42910   -1.96256    1.55572
H      0.05747   -0.03145    0.74914
H      0.93663    0.87776    1.99855
H      0.89394   -2.43420    3.45973
H      1.92483   -1.10355    2.90555
H      1.11398   -2.15236    1.71353
H     -4.90775    0.29176   -0.49583
H     -4.94916   -0.36797    1.15367
