28

C     -1.60250   -1.53874   -0.42785
C     -3.79327   -3.61391    0.85294
C      0.35584   -2.11794   -1.87079
C     -0.01104    0.27125   -1.08429
C     -4.18646   -1.12317    1.27793
C     -4.54178   -4.87792   -1.10432
C     -0.13868   -1.21859   -0.72665
C     -3.19951   -2.29320    1.39154
N     -4.00333   -3.67569   -0.48395
N     -1.87219   -1.97222    0.83361
O     -2.47580   -1.40494   -1.29754
O     -4.08402   -4.52624    1.63145
H     -0.24736   -1.95120   -2.76736
H      1.40077   -1.89143   -2.10619
H      0.28803   -3.17838   -1.60561
H     -0.62810    0.50234   -1.95683
H      1.03007    0.51660   -1.31786
H     -0.33535    0.91152   -0.25712
H     -4.38755   -0.86576    0.23779
H     -5.12759   -1.39870    1.76305
H     -3.78011   -0.24145    1.78345
H     -4.70504   -4.67965   -2.16554
H     -5.49155   -5.15539   -0.63864
H     -3.85453   -5.72471   -0.99794
H      0.46710   -1.41825    0.16664
H     -3.02643   -2.50062    2.44853
H     -3.67361   -2.90023   -1.05687
H     -1.08092   -2.12706    1.44326
