27

C     -0.57427   -0.76255   -1.51767
C      1.93450    0.24054    1.06236
C      1.11746   -0.90338    0.40443
C      1.00636    1.45880    0.97474
C     -0.14913   -0.21585   -0.14672
C     -2.56112   -2.99792   -2.88825
C     -0.90330    2.10527   -0.41193
C     -2.50384   -1.46715   -2.90174
N      0.21875    1.20082   -0.23149
N     -1.92454   -0.90830   -1.68281
O      0.23306   -1.02754   -2.40559
H      2.21983    0.01858    2.09427
H      2.84918    0.42545    0.49366
H      1.66877   -1.35987   -0.41881
H      0.85030   -1.69016    1.11514
H      0.35957    1.51974    1.87337
H      1.54143    2.40989    0.88420
H     -0.98606   -0.34947    0.57161
H     -1.55436   -3.41109   -2.78320
H     -3.17649   -3.36458   -2.05919
H     -2.99175   -3.37240   -3.82353
H     -1.41106    1.89374   -1.35719
H     -0.53931    3.13663   -0.44936
H     -1.64727    2.03302    0.40735
H     -3.50502   -1.04146   -3.02583
H     -1.88809   -1.12335   -3.73566
H     -2.52282   -0.75857   -0.88152
