65

C      5.35039   -3.73377    2.73692
C      6.94380   -1.92322    2.50769
C      3.72769   -2.27780    0.64545
C     -0.65100    0.70382    4.08495
C      6.27993   -4.44789    3.49467
C      7.87921   -2.64138    3.24720
C      2.73108   -1.54479   -0.00374
C     -0.74636    0.90018    2.70895
C      4.54388   -0.27305    1.73273
C      0.52174   -1.15102    2.38591
C      5.66542   -2.45483    2.24553
C      4.64717   -1.66049    1.51605
C      0.08160   -0.36677    4.63095
C      3.52692    0.45588    1.12770
C      0.68910   -1.29749    3.76931
C      7.54315   -3.90592    3.75162
C      2.61840   -0.18155    0.27878
C     -0.14461   -0.04404    1.86707
C      2.18456   -4.74588    3.50732
C      0.23488   -0.49471    6.13391
C      0.72088   -1.88525    6.56177
C      1.94102   -2.29852    5.73274
C      1.98320    2.08574    0.31706
C      1.57826   -2.43072    4.24561
C      3.15714    1.91445    1.33039
C      2.70357    2.15670    2.78320
C      4.31465    2.86293    0.97800
C      0.99612   -3.83337    3.90762
C      8.57094   -4.67615    4.52318
N      1.59727    0.72468   -0.15802
O      2.46013   -4.74409    2.26585
O      2.81952   -5.30207    4.44326
O     -0.21613   -0.99990   -0.61444
O     -0.84141    1.44464   -0.21420
F      8.04084   -5.67260    5.26991
F      9.50258   -5.26211    3.70680
F      9.28528   -3.88126    5.37480
S     -0.03934    0.25851    0.10941
H      4.36666   -4.17367    2.56362
H      7.21469   -0.94769    2.11169
H      3.76120   -3.35275    0.50701
H     -1.13003    1.41390    4.75724
H      5.98707   -5.41059    3.90131
H      8.86324   -2.22180    3.43757
H      2.01128   -2.03732   -0.64761
H     -1.26776    1.75275    2.28598
H      5.21800    0.21403    2.43345
H      0.95006   -1.90026    1.73119
H      0.96054    0.25803    6.47516
H     -0.71618   -0.24297    6.61994
H      0.95946   -1.87948    7.63191
H     -0.08502   -2.61592    6.41878
H      2.72643   -1.53962    5.85812
H      2.35665   -3.25370    6.06539
H      1.12269    2.59848    0.74851
H      2.30413    2.65763   -0.55887
H      2.50154   -2.33475    3.66286
H      2.36647    3.19209    2.91714
H      3.53152    1.97592    3.47719
H      1.88535    1.49019    3.06038
H      3.99540    3.91022    1.04796
H      4.67656    2.67926   -0.03882
H      5.15553    2.72345    1.66577
H      0.29703   -3.76326    3.07060
H      0.45996   -4.22967    4.77767
