24   

C       -4.2534859535   -1.0923248348    5.2354978239
C       -4.4072099683   -0.5769542695    3.9335695664
C       -2.0772035095   -1.5831342086    4.7813884783
C       -2.2078637158   -1.0693913913    3.4642394903
C       -1.1513787710   -0.5771747403    1.2116694518
C       -0.0365808365   -0.5511808993    0.4173173485
C       -1.0318912658   -1.0975458541    2.5615122465
C       -0.9539080819    0.9614800565   -1.2966562688
C        1.3946628529    0.0113664894   -1.4857880823
N       -3.0894702781   -1.6007593814    5.6753560636
N       -3.4001021587   -0.5586887639    3.0426395823
N        0.1311845658    0.1350126058   -0.7389896955
O        0.0352565693   -1.5613257693    2.9578164028
H       -5.1062360705   -1.0767148560    5.9038386576
H       -5.3716277834   -0.1805640344    3.6384565357
H       -1.1226702732   -1.9852374886    5.1009313847
H       -2.0825160676   -0.1364437969    0.8857054455
H        0.8384139970   -1.0821458678    0.7850041556
H       -1.3010728902    1.6871044698   -0.5541921103
H       -1.7912550700    0.3273915912   -1.6055232479
H       -0.6035497748    1.5169987759   -2.1722880846
H        1.2649289008   -0.6738558894   -2.3298107379
H        2.1932032482   -0.3740760955   -0.8437773249
H        1.7117688944    0.9887748536   -1.8625851416
24   

C       -4.2321384464   -1.0184287169    5.2397848915
C       -4.4227909446   -0.6467837311    3.8945208278
C       -2.0484066453   -1.4872896116    4.7980447055
C       -2.2158729762   -1.1168303020    3.4377676578
C       -1.2022955628   -0.8069492570    1.1327491529
C       -0.0831200804   -0.7225167118    0.3445910135
C       -1.0511098473   -1.1927808280    2.5234116666
C       -0.9490277051    0.9947148538   -1.1926600532
C        1.3969321192    0.0508939733   -1.4444554065
N       -3.0456787947   -1.4429412192    5.7078381902
N       -3.4306754305   -0.6903742731    2.9878262757
N        0.1175053245    0.0964684538   -0.7163210281
O        0.0386600186   -1.5742386055    2.9448439098
H       -5.0742084510   -0.9582747829    5.9190507535
H       -5.4038884739   -0.3125859824    3.5781415854
H       -1.0758834123   -1.8224496825    5.1397930528
H       -2.1488353521   -0.4115574859    0.7929616597
H        0.7926346758   -1.2636103480    0.6956391802
H       -1.3281348428    1.6080883750   -0.3690192015
H       -1.7709832372    0.4114920073   -1.6202123912
H       -0.5675125342    1.6690724916   -1.9658032186
H        1.2836996208   -0.5340753213   -2.3630206119
H        2.1796502640   -0.4090548528   -0.8327549367
H        1.7255113404    1.0626295625   -1.7018091084
24   

C       -4.1910261830   -0.9197381767    5.2363384333
C       -4.4144987727   -0.6940644711    3.8640333675
C       -1.9946528240   -1.3391754443    4.8070335647
C       -2.1950744188   -1.1150084407    3.4196174612
C       -1.2221540780   -0.9951239950    1.0789230888
C       -0.1104440819   -0.8616522626    0.2803462004
C       -1.0389014641   -1.2300990674    2.4984524936
C       -0.9411069021    1.0288101126   -1.0563268518
C        1.3948433355    0.0870264400   -1.4008769495
N       -2.9815070142   -1.2451141895    5.7244536349
N       -3.4328934794   -0.7875605488    2.9497712178
N        0.1101841978    0.0671360986   -0.6809429263
O        0.0735533482   -1.5155230012    2.9360094630
H       -5.0262836758   -0.8261392502    5.9202193907
H       -5.4128864599   -0.4342331624    3.5322662899
H       -1.0041247568   -1.5966867755    5.1640364084
H       -2.1866066878   -0.6547431370    0.7296310915
H        0.7679446770   -1.4145444589    0.6057438862
H       -1.3373283942    1.5289512533   -0.1668062199
H       -1.7552536099    0.5140427646   -1.5765830392
H       -0.5384459711    1.7985006666   -1.7222758854
H        1.2830065424   -0.3940306186   -2.3780488463
H        2.1680973821   -0.4446547303   -0.8371934397
H        1.7354195240    1.1170381214   -1.5452697106
24   

C       -4.1565231917   -0.8108038203    5.2137515301
C       -4.4051053587   -0.7370953781    3.8292957263
C       -1.9466877247   -1.1666254737    4.7953999967
C       -2.1723547833   -1.0950546348    3.3957715324
C       -1.2278250986   -1.1769450052    1.0417766891
C       -0.1363085179   -1.0005074660    0.2132370898
C       -1.0210837146   -1.2459163426    2.4735240764
C       -0.9492639978    1.0297949259   -0.9039582637
C        1.3673212217    0.0945112735   -1.3771098617
N       -2.9274533166   -1.0268528709    5.7136101226
N       -3.4297288326   -0.8769157763    2.9143521031
N        0.0891567358    0.0159717419   -0.6496483034
O        0.1106360507   -1.4230891542    2.9183133190
H       -4.9881991733   -0.6875653828    5.8973016861
H       -5.4182516746   -0.5594622198    3.4881665357
H       -0.9410007932   -1.3390775843    5.1611121137
H       -2.2124919479   -0.9075154628    0.6866068287
H        0.7474536542   -1.5658514358    0.5003033343
H       -1.3438585543    1.4192973229    0.0399863705
H       -1.7672066382    0.5943796191   -1.4868615811
H       -0.5343027746    1.8724602082   -1.4658950826
H        1.2361742727   -0.2659438290   -2.4026075220
H        2.1343502075   -0.5154545006   -0.8893266919
H        1.7283826308    1.1273216648   -1.4034293942
24   

C       -4.1297865615   -0.7228118522    5.1690013039
C       -4.3950030883   -0.8061886127    3.7882569385
C       -1.9052554684   -0.9787874152    4.7545464202
C       -2.1476238948   -1.0648661207    3.3586354044
C       -1.2183900738   -1.3388691455    1.0146078211
C       -0.1552188538   -1.1293624677    0.1424300428
C       -0.9971777362   -1.2357045441    2.4386459039
C       -0.9374832468    1.0226123807   -0.7296780073
C        1.3308517014    0.0748479390   -1.3800432807
N       -2.8848331981   -0.8085870836    5.6689788094
N       -3.4208507536   -0.9767961751    2.8773423424
N        0.0728800027   -0.0445770503   -0.6234618472
O        0.1485325965   -1.2880764616    2.8791929667
H       -4.9616099664   -0.5835030924    5.8492790484
H       -5.4204055398   -0.7280536755    3.4464050727
H       -0.8872972933   -1.0497645820    5.1200505632
H       -2.2231915713   -1.1604811152    0.6581408814
H        0.7283744897   -1.7214291698    0.3688216667
H       -1.2951406587    1.3128505640    0.2634827798
H       -1.7840640639    0.6824669294   -1.3345551962
H       -0.5085519439    1.9117553040   -1.2024435966
H        1.1547683328   -0.1551533430   -2.4359046243
H        2.0876451443   -0.6163714970   -0.9956221522
H        1.7313963524    1.0898573429   -1.2958711572
24   

C       -4.1395122759   -0.9097634553    5.3196873416
C       -4.4542501201   -1.3094205222    4.0062952722
C       -2.1238691518   -0.1347521933    4.5978040965
C       -2.4162062399   -0.5333724986    3.2668659125
C       -1.6524061687   -0.7380593230    0.8556710597
C       -0.5977991070   -0.9828354996   -0.0419927085
C       -1.3905066287   -0.3283084912    2.2149040421
C       -0.2484001862    1.3597695451   -0.6108422059
C        0.9705383878   -0.4926978705   -1.8447642198
N       -2.9749453021   -0.3149967711    5.6310934120
N       -3.6099140208   -1.1256196294    2.9760188824
N       -0.0331895475   -0.0787168568   -0.8505829540
O       -0.2998929828    0.1556695108    2.5055158917
H       -4.8638087635   -1.0913941037    6.1048717426
H       -5.4090711758   -1.7865285154    3.8190744114
H       -1.1700627308    0.3330331964    4.8130380180
H       -2.5795918760   -1.2678058337    0.6871370993
H       -0.4877871496   -2.0189632958   -0.3484470919
H       -1.3167245154    1.5781523984   -0.5150969695
H        0.1384940663    1.9495020254   -1.4476714450
H        0.2672113172    1.6727531691    0.3028401460
H        0.7433772243   -0.0479194819   -2.8186491070
H        0.9815607333   -1.5807113629   -1.9641521287
H        1.9676308833   -0.1718203056   -1.5260293785
24   

C       -4.0863993174   -0.8308085370    5.3035163011
C       -4.4016888366   -1.3390423183    4.0283439388
C       -2.1120447185   -0.0356695882    4.4952333035
C       -2.4053831724   -0.5424462124    3.2014544298
C       -1.6704110245   -0.8971669345    0.8017764989
C       -0.6427459250   -1.0746836508   -0.1276012808
C       -1.4059907922   -0.3667819504    2.1185802547
C       -0.2829122933    1.3211279335   -0.5256298679
C        0.9838252347   -0.4431919628   -1.8308750313
N       -2.9418904916   -0.1713887916    5.5522652342
N       -3.5780124490   -1.2012397418    2.9743727889
N       -0.0356841461   -0.1021281923   -0.8251401556
O       -0.3404367153    0.1935405142    2.3611024108
H       -4.7935384331   -0.9796512677    6.1109212707
H       -5.3402054756   -1.8632678377    3.8915574262
H       -1.1754055875    0.4839901744    4.6612737504
H       -2.5507486052   -1.5166095960    0.7009849089
H       -0.5775765615   -2.0690719276   -0.5594298723
H       -1.3430052877    1.4970091677   -0.3176809816
H       -0.0085962059    1.9437659612   -1.3827635433
H        0.3120555165    1.6376170258    0.3367577023
H        0.8043903605    0.1124182265   -2.7565967597
H        0.9610594432   -1.5113102031   -2.0689978787
H        1.9803745045   -0.1961205889   -1.4505701611
24   

C       -4.0703744630   -0.7897632163    5.2711335286
C       -4.3644001170   -1.3798761312    4.0265625115
C       -2.1193415949    0.0206918383    4.4225997282
C       -2.3916681373   -0.5674511558    3.1587275743
C       -1.6434146842   -1.0349694144    0.7869596276
C       -0.6717114441   -1.1362251631   -0.2011565663
C       -1.3992329374   -0.4120430837    2.0656800810
C       -0.3063486716    1.2885286984   -0.4851770571
C        0.9921965462   -0.4174758292   -1.8290912263
N       -2.9481006723   -0.0816053432    5.4842506537
N       -3.5414077872   -1.2765814531    2.9681360979
N       -0.0237050764   -0.1245103156   -0.8044243313
O       -0.3601838919    0.2055223443    2.2813953991
H       -4.7760068845   -0.9138038800    6.0840282488
H       -5.2859182774   -1.9396056206    3.9177988461
H       -1.2012114808    0.5799803994    4.5609008453
H       -2.4818070068   -1.7153854826    0.7311545921
H       -0.6438495574   -2.0892962944   -0.7211971563
H       -1.3509722127    1.4229120519   -0.1879057745
H       -0.1335516555    1.9183433202   -1.3631951466
H        0.3463049302    1.6342885835    0.3224682212
H        0.8389622951    0.2145582280   -2.7094162473
H        0.9374220981   -1.4618759212   -2.1520994710
H        1.9928445951   -0.2332433976   -1.4247690447
24   

C       -4.0643396782   -0.7850582915    5.2646888209
C       -4.3172810494   -1.4486529557    4.0484766851
C       -2.1369447982    0.0620999319    4.3981914656
C       -2.3687966628   -0.5981175916    3.1619591038
C       -1.5839466990   -1.1410987087    0.8205544347
C       -0.6917623998   -1.1569314940   -0.2359213362
C       -1.3770794820   -0.4434855110    2.0676102065
C       -0.3212428039    1.2827359945   -0.4374761926
C        0.9796341870   -0.3796695053   -1.8268220137
N       -2.9743996110   -0.0220136823    5.4546282209
N       -3.4851810179   -1.3645680832    2.9955185101
N       -0.0133507653   -0.1221979762   -0.7701481082
O       -0.3744653386    0.2368363568    2.2640031399
H       -4.7758863812   -0.8960779930    6.0743022083
H       -5.2143394942   -2.0497421064    3.9573876360
H       -1.2457420866    0.6673048334    4.5180218548
H       -2.3750645100   -1.8778576204    0.8005727042
H       -0.6998303876   -2.0717394656   -0.8213211207
H       -1.3525405720    1.3874008584   -0.0867905252
H       -0.2128066793    1.9162955343   -1.3229937939
H        0.3619785958    1.6491653777    0.3350896843
H        0.8488238099    0.3238127619   -2.6550726826
H        0.8747695316   -1.3921462513   -2.2293261986
H        1.9908591138   -0.2710187741   -1.4215715760
24   

C       -4.0802670831   -0.7797409918    5.2845403670
C       -4.2723724024   -1.5102809954    4.0959405449
C       -2.1776577879    0.1225682541    4.4189266685
C       -2.3492064417   -0.6030974471    3.2096723419
C       -1.4985354885   -1.1997773682    0.9056888591
C       -0.6867210470   -1.1501980025   -0.2079793935
C       -1.3497780076   -0.4371435998    2.1234417667
C       -0.2497515183    1.2842160065   -0.3635810521
C        0.9918181538   -0.3811920218   -1.7937919735
N       -3.0332621579    0.0441258918    5.4611859808
N       -3.4216331937   -1.4328824740    3.0574970684
N        0.0381600647   -0.1236503713   -0.7009454782
O       -0.3945050829    0.3106149844    2.3071836884
H       -4.8045867635   -0.8879949910    6.0831252970
H       -5.1371900233   -2.1581497336    4.0142369507
H       -1.3216944039    0.7785210029    4.5280315792
H       -2.2439524994   -1.9830013542    0.9122175934
H       -0.7390203683   -2.0376799715   -0.8319721196
H       -1.2720462691    1.3979757992    0.0099026929
H       -0.1559657169    1.9163088025   -1.2517999910
H        0.4548377680    1.6456902320    0.3920210297
H        0.8280240399    0.3193105166   -2.6187753295
H        0.8769363232   -1.3953487094   -2.1893376604
H        2.0171426610   -0.2688714117   -1.4269790291
24   

C       -4.1094310593   -0.8451594642    5.2762504728
C       -4.2332212115   -1.6263500963    4.1110759789
C       -2.2482319522    0.1418183731    4.4130921948
C       -2.3521622161   -0.6327028550    3.2264422270
C       -1.4375818495   -1.2360624583    0.9483084519
C       -0.7074214669   -1.1301505869   -0.2149245612
C       -1.3507522965   -0.4327926589    2.1469945195
C       -0.1227010325    1.2774772995   -0.3201347553
C        0.9586039467   -0.4134381715   -1.8363361328
N       -3.1175066610    0.0461697117    5.4425261064
N       -3.3685206553   -1.5323116929    3.0856189726
N        0.0783114649   -0.1372382502   -0.6875251050
O       -0.4528421455    0.3839655374    2.3215261391
H       -4.8422697934   -0.9692791985    6.0646906645
H       -5.0558692227   -2.3278034582    4.0367044524
H       -1.4375791719    0.8542640989    4.5135460277
H       -2.1425478541   -2.0555985973    0.9707197416
H       -0.8188619044   -1.9917489057   -0.8669168301
H       -1.1366777123    1.4446558544    0.0560675529
H        0.0087883510    1.9215715883   -1.1949064545
H        0.6048729413    1.5799655811    0.4396222740
H        0.7075078299    0.2417742567   -2.6765736006
H        0.8569090110   -1.4493810408   -2.1750557118
H        2.0031778813   -0.2498412676   -1.5527720171
24   

C       -4.1610958722   -1.0384307017    5.2441510981
C       -4.0862605126   -1.9025355012    4.1351123162
C       -2.6517496980    0.3524639812    4.2581077051
C       -2.5567421807   -0.5028541476    3.1272696743
C       -1.5270759145   -0.9974824839    0.8717003549
C       -0.7970772749   -0.9363281863   -0.3019619378
C       -1.6409912070   -0.1278209898    2.0157443199
C        0.3772150175    1.2555208020   -0.2984985705
C        0.6943022616   -0.4091365038   -2.1546172837
N       -3.4475868959    0.0978909889    5.3195824935
N       -3.2958362595   -1.6493483588    3.0774465123
N        0.0823792326   -0.0751386148   -0.8552301653
O       -0.9877689889    0.9032329149    2.1186495553
H       -4.8183646023   -1.3025833581    6.0640990072
H       -4.6863491741   -2.8049145496    4.1331407843
H       -2.0612810642    1.2608179798    4.2886839813
H       -2.1367244946   -1.8886480753    0.9241428735
H       -0.9811625295   -1.8191611110   -0.9074492878
H        0.9059271626    1.8693806209   -1.0338459267
H        1.0159560685    1.1665964706    0.5855332794
H       -0.5467784942    1.7858991882   -0.0541173852
H        0.5012177853    0.3888124349   -2.8789101583
H        0.2836785224   -1.3370240846   -2.5651104274
H        1.7754224009   -0.5353587328   -2.0388480519
24   

C       -4.0073901924   -0.9153882827    5.3366605272
C       -3.7831554974   -1.9202107743    4.3757968635
C       -2.9579801083    0.5962914510    3.9962197957
C       -2.7172106417   -0.3997042294    3.0119118664
C       -1.7574556139   -1.0296602556    0.7596176500
C       -1.0039566311   -0.9402337189   -0.3901528568
C       -1.9841780122   -0.0257730684    1.7746067114
C        0.7454019044    0.7197663933    0.1865096038
C        0.3726833471   -0.0398014539   -2.1824447168
N       -3.5995584561    0.3528265165    5.1596718796
N       -3.1446370667   -1.6792708489    3.2171938340
N       -0.0712110578   -0.0422867246   -0.7774563231
O       -1.6251306483    1.1381517056    1.6327056080
H       -4.5271248404   -1.1777600455    6.2505171201
H       -4.1363235064   -2.9246826225    4.5773573747
H       -2.6127714767    1.6090660195    3.8231671588
H       -2.2746668073   -1.9698525228    0.8924237953
H       -1.1831150774   -1.7592204415   -1.0808245204
H        1.7825076351    0.7822023910   -0.1568284986
H        0.7568074497    0.2292645637    1.1647286946
H        0.3580447696    1.7381237774    0.2913652713
H        0.1518621461    0.9293801767   -2.6409542582
H       -0.1388469968   -0.8145544549   -2.7623898842
H        1.4491120031   -0.2292833772   -2.2436810868
24   

C       -3.9779622945   -0.9011086486    5.3082600203
C       -3.6837452160   -1.9395673078    4.4035845815
C       -2.9951985970    0.5969931723    3.9035839450
C       -2.6862958277   -0.4327189624    2.9748196159
C       -1.6850483990   -1.1161754510    0.7567956178
C       -1.0075441760   -0.9746170104   -0.4359365312
C       -1.9688567400   -0.0803336883    1.7229003558
C        0.8101936809    0.5707858416    0.2341373781
C        0.3965177086   -0.0232730140   -2.1818587840
N       -3.6384827252    0.3773819831    5.0708218500
N       -3.0432825662   -1.7224051758    3.2413437973
N       -0.0246743276   -0.1127598080   -0.7730684033
O       -1.6758645331    1.0935378852    1.5188802271
H       -4.4965177230   -1.1451903672    6.2278364187
H       -3.9835482871   -2.9507060866    4.6526461342
H       -2.7066804555    1.6177155515    3.6805612273
H       -2.1603360023   -2.0736968367    0.9192566432
H       -1.2270781796   -1.7517386224   -1.1623043421
H        1.8552383308    0.5948749920   -0.0892371150
H        0.7787115228    0.0449274190    1.1933066307
H        0.4694237217    1.6014784300    0.3740856863
H        0.0951702235    0.9427280019   -2.5995833618
H       -0.0600873797   -0.8157909408   -2.7831838896
H        1.4831672124   -0.1256993248   -2.2644925940
24   

C       -3.9595137965   -0.8557458587    5.3282232896
C       -3.5980627039   -1.9146302281    4.4728649935
C       -3.0232211835    0.6301659338    3.8795312610
C       -2.6488159931   -0.4201028915    2.9993664946
C       -1.5889240426   -1.1393006235    0.8193245903
C       -1.0172925371   -0.9482983975   -0.4253713325
C       -1.9398225760   -0.0829904797    1.7389328737
C        0.8515554559    0.5268251554    0.2534533560
C        0.3847508752    0.0027171078   -2.1741547008
N       -3.6765047991    0.4270227599    5.0441796429
N       -2.9463560532   -1.7139328871    3.3139003057
N        0.0032157822   -0.1335389960   -0.7582619303
O       -1.7101660983    1.0949830396    1.4814806441
H       -4.4847773537   -1.0870784417    6.2472890198
H       -3.8548973474   -2.9281041533    4.7578626497
H       -2.7818536325    1.6539071140    3.6176684187
H       -2.0062591491   -2.1166426877    1.0186112109
H       -1.2944466196   -1.6896902228   -1.1691152090
H        1.8915610842    0.5605574549   -0.0850002990
H        0.8350670627   -0.0220019300    1.2000415415
H        0.5106493449    1.5526816946    0.4246865864
H        0.0571428478    0.9751226177   -2.5558665060
H       -0.0745199676   -0.7813946071   -2.7843648316
H        1.4702962002   -0.0788511436   -2.2879121881
24   

C       -3.9707459076   -0.8505183429    5.3386742304
C       -3.5333199946   -1.9131860585    4.5244074376
C       -3.0766850300    0.6402226987    3.8683752914
C       -2.6277444528   -0.4138384937    3.0288348825
C       -1.4873712244   -1.1348547852    0.8876276936
C       -1.0306995169   -0.9030799689   -0.4034627538
C       -1.9192635627   -0.0760583985    1.7687748210
C        0.8846208021    0.5202528132    0.2307892511
C        0.3630150956   -0.0056632890   -2.1889462558
N       -3.7467252066    0.4366574074    5.0233762810
N       -2.8638229684   -1.7119260461    3.3757093505
N        0.0270637522   -0.1544699043   -0.7631780163
O       -1.7523127677    1.1034342136    1.4713258639
H       -4.5075336713   -1.0825486088    6.2508814758
H       -3.7455625405   -2.9301067691    4.8328714424
H       -2.8838029531    1.6671304955    3.5800198380
H       -1.8351332518   -2.1317444279    1.1205550029
H       -1.3834584951   -1.6091800434   -1.1494831246
H        1.9095646452    0.6010395137   -0.1438948731
H        0.9230939684   -0.0466844814    1.1660756698
H        0.5104147468    1.5283206192    0.4346671666
H        0.0772137599    0.9923888215   -2.5366937328
H       -0.1629707984   -0.7477439204   -2.7978386815
H        1.4373887105   -0.1454198502   -2.3442204489
24   

C       -4.0150813306   -0.8742017573    5.3464434004
C       -3.4928912767   -1.9224673947    4.5640215364
C       -3.1631310745    0.6426073403    3.8776598839
C       -2.6304512831   -0.3968449201    3.0699014083
C       -1.3889933995   -1.0804451659    0.9687662336
C       -1.0378564453   -0.8233023927   -0.3585044527
C       -1.9153736038   -0.0392283091    1.8196601056
C        0.9334337102    0.5337476186    0.1897134871
C        0.3413595158   -0.0337785954   -2.2078861920
N       -3.8547286985    0.4187803278    5.0160887230
N       -2.8010201075   -1.7007254644    3.4324875968
N        0.0577879911   -0.1661547357   -0.7693851303
O       -1.8121155651    1.1408133957    1.4955985483
H       -4.5663775892   -1.1226856886    6.2455713677
H       -3.6570965401   -2.9450958444    4.8827854886
H       -3.0214616762    1.6740021095    3.5759055853
H       -1.6556338142   -2.0951876395    1.2296437421
H       -1.4864277499   -1.4871448348   -1.0917360997
H        1.9240939671    0.6946024344   -0.2465489825
H        1.0675327052   -0.0597349848    1.0995333695
H        0.5086144471    1.5075524097    0.4525689111
H        0.1340047781    0.9898870653   -2.5363677521
H       -0.2790953134   -0.7167867945   -2.7966419345
H        1.3902526820   -0.2710849694   -2.4112764966
24   

C       -4.0763460626   -0.9510920314    5.3574071041
C       -3.4489443471   -1.9579115799    4.5981552248
C       -3.3017044056    0.6225831622    3.9054897799
C       -2.6648798782   -0.3748540284    3.1210618790
C       -1.3085930983   -0.9621513571    1.0583168571
C       -1.0323479562   -0.7064833314   -0.2967186934
C       -1.9521130029    0.0311661123    1.8850022836
C        1.0140568042    0.5438566715    0.1305370300
C        0.3156286937   -0.0753082337   -2.2292642234
N       -4.0076493648    0.3493659504    5.0241954423
N       -2.7414809789   -1.6864456420    3.4873206751
N        0.0921035585   -0.1630569018   -0.7768243905
O       -1.9406200528    1.2099633251    1.5408580520
H       -4.6349122151   -1.2390770833    6.2401176140
H       -3.5430337299   -2.9892706892    4.9172366569
H       -3.2330111511    1.6603224082    3.6000824770
H       -1.4572879066   -1.9930730573    1.3477974854
H       -1.6009874158   -1.3060486700   -1.0015221537
H        1.9519416697    0.7778139782   -0.3826788695
H        1.2550452008   -0.0802829913    0.9968787744
H        0.5629898346    1.4802062427    0.4746556888
H        0.2032736288    0.9612802154   -2.5633450029
H       -0.4037226119   -0.6925365166   -2.7767232354
H        1.3216768789   -0.4268904448   -2.4785344844
24   

C       -3.8459697267   -0.9261500230    5.3568867649
C       -2.9460879759   -1.7534046929    4.6571605350
C       -4.0507557985    0.4018331081    3.5183202510
C       -3.1457202140   -0.4164714584    2.7930436305
C       -1.8982447211   -0.8740691575    0.6325614903
C       -1.3021433039   -0.3520241987   -0.5107160412
C       -2.8067528553   -0.0504125972    1.3965498142
C        0.9575057483   -0.1697057667    0.4189813935
C        0.4000289628    0.7270757595   -1.8943594983
N       -4.4092138297    0.1589738703    4.7978711310
N       -2.5895630741   -1.5132624379    3.3831590171
N       -0.0270937566    0.0595036147   -0.6529545642
O       -3.2925946825    0.9538559574    0.8818811730
H       -4.0896748386   -1.1761015569    6.3826784910
H       -2.5235989638   -2.6134350005    5.1633882800
H       -4.4828995691    1.2702152800    3.0345489265
H       -1.3954707627   -1.6725486604    1.1599770240
H       -2.0036308105    0.0845551707   -1.2177150393
H        1.2272158889   -1.2296662142    0.4638546272
H        0.5511703499    0.1421068393    1.3865505259
H        1.8665117944    0.4119756713    0.2361701813
H        1.0313461416    1.5910725422   -1.6647652290
H       -0.4628944818    1.0854271376   -2.4646648574
H        0.9633278177    0.0270197710   -2.5199509421
24   

C       -3.9507288584   -0.9757895522    5.3483225746
C       -2.9333764554   -1.7095002124    4.7075984070
C       -4.2201615387    0.2848874908    3.4712425406
C       -3.1971696084   -0.4395354092    2.8051861948
C       -1.7983620649   -0.7910668878    0.7179543541
C       -1.2554028616   -0.2463725925   -0.4298881545
C       -2.8383411926   -0.0645586309    1.4161157633
C        1.0814908084   -0.2561541244    0.3249373615
C        0.4147064674    0.7616745219   -1.9076502763
N       -4.6063694484    0.0277498472    4.7398416452
N       -2.5487910874   -1.4550227959    3.4445608789
N        0.0357580774    0.0866061450   -0.6547459977
O       -3.4149873591    0.8648126606    0.8559444516
H       -4.2107625867   -1.2318250659    6.3685887376
H       -2.4408449052   -2.5067573528    5.2518320663
H       -4.7243107870    1.0898839744    2.9490451293
H       -1.2344628075   -1.5259764789    1.2749321635
H       -1.9758597976    0.2301262501   -1.0909140018
H        1.2637411490   -1.3355803634    0.3203920993
H        0.7821751885    0.0569130836    1.3303439828
H        2.0186704314    0.2540327823    0.0811105164
H        1.1363623624    1.5597857003   -1.7076800259
H       -0.4583384980    1.2133626583   -2.3894145628
H        0.8602121233    0.0404520358   -2.6005665245
24   

C       -4.0268519554   -1.0458382488    5.3525547138
C       -2.9124131131   -1.6762163592    4.7654019225
C       -4.3376538341    0.1690399463    3.4521013385
C       -3.2172594913   -0.4515847279    2.8398233540
C       -1.6902465153   -0.6684362830    0.8245126522
C       -1.2055934150   -0.1196954082   -0.3397044608
C       -2.8377482657   -0.0525357718    1.4631490945
C        1.1808688267   -0.3083438120    0.2266242351
C        0.4148162332    0.7712030038   -1.9435977758
N       -4.7526131633   -0.1179117194    4.7050365539
N       -2.4984522217   -1.3914861539    3.5181079358
N        0.0877957243    0.1209706189   -0.6632451466
O       -3.4875691440    0.8033209413    0.8667304220
H       -4.3057853565   -1.3207947285    6.3628536771
H       -2.3674256380   -2.4164700546    5.3393112606
H       -4.8968318320    0.9154610372    2.8997552992
H       -1.0792476374   -1.3488417544    1.4004966930
H       -1.9440078025    0.3756187328   -0.9662422997
H        1.2617515265   -1.4001049274    0.2255727413
H        1.0022210255    0.0417034416    1.2483523775
H        2.1358844617    0.1085299954   -0.1083579513
H        1.2183932111    1.5014190987   -1.8064366716
H       -0.4537127515    1.3019104493   -2.3465319593
H        0.7336463071    0.0199323816   -2.6734794863
24   

C       -4.1020020149   -1.1253072357    5.3346110267
C       -2.9029303315   -1.6437235595    4.8076864987
C       -4.4357209639    0.0490594939    3.4128258878
C       -3.2305468978   -0.4593786253    2.8608542046
C       -1.5919901629   -0.5338276721    0.9257402065
C       -1.1515387412   -0.0024913018   -0.2593363654
C       -2.8262820690   -0.0314188366    1.4999832321
C        1.2482041649   -0.3905626917    0.1312740547
C        0.4143598290    0.7300461158   -1.9916474687
N       -4.8823116180   -0.2747066074    4.6457094009
N       -2.4571780336   -1.3220083662    3.5804701243
N        0.1306334915    0.1237472106   -0.6797407314
O       -3.5314351739    0.7502085105    0.8655023825
H       -4.4028824025   -1.4247563645    6.3315593250
H       -2.3173631092   -2.3258325019    5.4128116372
H       -5.0379538850    0.7350043290    2.8282618025
H       -0.9497742854   -1.1671996180    1.5208332916
H       -1.8986752295    0.5063769989   -0.8641511560
H        1.2195442312   -1.4845106689    0.1631162692
H        1.1940161704    0.0046037865    1.1507042885
H        2.2076458983   -0.0841482911   -0.2972671474
H        1.2818733090    1.3939937989   -1.9253453583
H       -0.4357859737    1.3250804012   -2.3403104195
H        0.6175076969   -0.0530853797   -2.7293522795
24   

C       -4.2876184615   -1.1537673849    5.2364034028
C       -4.3654777172   -0.4344068249    4.0278016688
C       -2.1669720670   -1.7966577255    4.7140629672
C       -2.2217165369   -1.0788093076    3.4903037731
C       -1.0817599591   -0.3640804278    1.3403986046
C       -0.0069655727   -0.4473399251    0.4962869455
C       -1.0405879459   -1.0945406155    2.5940329725
C       -1.1367513398    0.4858080514   -1.4835127598
C        1.3048895198   -0.2126500569   -1.5555597649
N       -3.1902225597   -1.8425784271    5.5944131113
N       -3.3474454540   -0.3880134385    3.1504082326
N        0.0416192895   -0.0866183743   -0.8087986407
O       -0.0342095778   -1.7227770472    2.9156969316
H       -5.1450299779   -1.1496522490    5.8989238249
H       -5.2785091780    0.1012039581    3.7958248607
H       -1.2648793168   -2.3407843202    4.9691803857
H       -1.9844542566    0.1533953787    1.0490651213
H        0.8897483337   -0.9188385849    0.8916722840
H       -1.3798665957    1.4633909575   -1.0547438387
H       -1.9979425730   -0.1818921232   -1.3794320976
H       -0.9413722441    0.6193930345   -2.5521873447
H        1.1161393257   -0.6027063080   -2.5605944261
H        1.9899775637   -0.9028508394   -1.0528748113
H        1.7914917934    0.7648778265   -1.6354789280
24   

C       -4.2752398089   -1.1565005512    5.2388886917
C       -4.3921320934   -0.5144011749    3.9905769773
C       -2.1137197337   -1.6875938708    4.7603160769
C       -2.2075993849   -1.0471712122    3.4965832471
C       -1.1081744482   -0.3966032440    1.3068941756
C       -0.0100437265   -0.4225271490    0.4893267757
C       -1.0238906758   -1.0417877648    2.6034543446
C       -1.0194923262    0.8580503988   -1.3553286442
C        1.3436787394   -0.0572052487   -1.5146172315
N       -3.1373170715   -1.7495554610    5.6392769503
N       -3.3736438145   -0.4517082087    3.1147343176
N        0.1003436170    0.1199367658   -0.7447931056
O        0.0175928336   -1.5871833508    2.9624720838
H       -5.1355416584   -1.1711614189    5.8975010317
H       -5.3368422848   -0.0544754345    3.7254204378
H       -1.1799693743   -2.1565817718    5.0485639953
H       -2.0258350787    0.0857384533    1.0025763900
H        0.8708524176   -0.9387988966    0.8636128059
H       -1.3293230730    1.6845825450   -0.7078739841
H       -1.8686148713    0.1873982828   -1.5221928270
H       -0.7216728451    1.2788269072   -2.3209428792
H        1.1848549548   -0.7785430484   -2.3227134084
H        2.1525893732   -0.4258528146   -0.8756835533
H        1.6643230488    0.8978149240   -1.9425511514
