22   

C        1.8246529415   -0.2110092890    0.1153638800
C        0.5378272782   -0.4647937726    0.5831221935
C        2.9237209715   -0.4453813315    0.9443041072
C        0.3549597483   -0.9575415577    1.8759709571
C        2.7602446371   -0.9282505904    2.2537354472
C        1.4487411583   -1.1964747172    2.7260970122
C        3.9531985060   -1.1290921218    3.0993932345
C        5.2694877430   -0.8026800157    2.8750549637
C        1.1969939083   -1.7575663991    4.1056372504
C        6.3746217888   -1.6108833429    2.2243155503
H        1.9730296104    0.1703548973   -0.8883592671
H       -0.3192867432   -0.2827246771   -0.0551768424
H        3.9188496579   -0.2388534195    0.5686544593
H       -0.6527449164   -1.1571232515    2.2214554651
H        3.7271837253   -1.2986148266    4.1443013658
H        5.7059885369   -0.3681736090    3.7681721032
H        1.7814255046   -2.6710248897    4.2535132814
H        1.4753672922   -1.0234513389    4.8676467268
H        0.1405938671   -2.0084268253    4.2400314681
H        7.1802931154   -1.8049830060    2.9388917348
H        5.9816187953   -2.5688135147    1.8703600782
H        6.7837597809   -1.0632082937    1.3704469098
22   

C        1.9192558345   -0.2841267590    0.1164035072
C        0.6178538684   -0.5043993386    0.5596596979
C        2.9928130183   -0.4828606109    0.9870132129
C        0.3948482974   -0.9275527805    1.8705392614
C        2.7888643338   -0.8920198415    2.3165916628
C        1.4621632102   -1.1263638489    2.7634753877
C        3.9509288606   -1.0579426601    3.2115149556
C        5.2683485942   -0.7942056483    2.9670551580
C        1.1686026053   -1.6287549853    4.1572847502
C        6.2419611261   -1.5944965357    2.1295795955
H        2.0987554029    0.0442762776   -0.9008627975
H       -0.2193433632   -0.3515425393   -0.1118744439
H        3.9979140750   -0.2997770269    0.6269889845
H       -0.6233750656   -1.1067071583    2.1957756458
H        3.7007274634   -1.1364459609    4.2619281645
H        5.7841090040   -0.4450030661    3.8552131072
H        1.7632289894   -2.5231507587    4.3683904043
H        1.4045638477   -0.8559341694    4.8947119255
H        0.1129969339   -1.8963148072    4.2628330277
H        7.0967585586   -1.9096151335    2.7356127100
H        5.7502775757   -2.4853192657    1.7266208515
H        6.6048942202   -0.9865294529    1.2958051025
22   

C        1.9925381842   -0.3589496021    0.1196745570
C        0.6818418000   -0.5519340663    0.5466291841
C        3.0472326181   -0.5091264096    1.0223943028
C        0.4305907845   -0.8976412550    1.8745908447
C        2.8154364435   -0.8377613234    2.3709119676
C        1.4781994597   -1.0424782286    2.8006051010
C        3.9496860461   -0.9540397934    3.3096488035
C        5.2718480682   -0.8033437466    3.0405424708
C        1.1552289741   -1.4805667716    4.2094969875
C        6.1010109956   -1.6096942927    2.0681300118
H        2.1940304135   -0.0876076925   -0.9102070327
H       -0.1404226016   -0.4386542684   -0.1507077855
H        4.0563161117   -0.3397723921    0.6691581538
H       -0.5942363815   -1.0615811574    2.1867907785
H        3.6905566849   -0.9455933547    4.3610419413
H        5.8579908063   -0.5181903296    3.9075425785
H        1.7648209326   -2.3476626364    4.4832136164
H        1.3493647172   -0.6659600785    4.9130696951
H        0.1044708577   -1.7727629089    4.2968784461
H        6.9733550306   -2.0327637844    2.5752609856
H        5.5078526423   -2.4294969148    1.6509168023
H        6.4455367045   -0.9709641346    1.2496417823
22   

C        2.0316621590   -0.4079748001    0.1279536573
C        0.7164946141   -0.5865274863    0.5450176801
C        3.0750717219   -0.5176862202    1.0492214275
C        0.4493559700   -0.8742258886    1.8830672870
C        2.8291929341   -0.7905430184    2.4091641409
C        1.4850750010   -0.9749028476    2.8282027312
C        3.9408906428   -0.8659347598    3.3788418925
C        5.2662531168   -0.8478981216    3.1106868506
C        1.1435043884   -1.3642827289    4.2470815944
C        5.9805488523   -1.6240643588    2.0322286914
H        2.2456722249   -0.1764307282   -0.9090994769
H       -0.0966736700   -0.5061095034   -0.1673884490
H        4.0825599472   -0.3463865186    0.6958383416
H       -0.5788889105   -1.0297447851    2.1881685034
H        3.6780871834   -0.7968753208    4.4272332791
H        5.8951693246   -0.6370168534    3.9688394957
H        1.7632893073   -2.2087436700    4.5653859931
H        1.3085293996   -0.5199334177    4.9222126823
H        0.0973685474   -1.6750885361    4.3256315240
H        6.8489394734   -2.1386313758    2.4544057990
H        5.3151393248   -2.3739241532    1.5928969507
H        6.3260412642   -0.9467652858    1.2457352063
22   

C        2.0519772241   -0.4375744517    0.1345783005
C        0.7368588114   -0.6097404226    0.5519539393
C        3.0928500990   -0.5137808210    1.0618484346
C        0.4671288546   -0.8539049873    1.8974943057
C        2.8468140678   -0.7478440385    2.4304152912
C        1.5000162315   -0.9184946153    2.8490079293
C        3.9458931223   -0.7887228665    3.4177773021
C        5.2640742623   -0.9128678013    3.1642209043
C        1.1532400702   -1.2717817027    4.2761952582
C        5.8994606687   -1.6321136966    2.0022226780
H        2.2681834897   -0.2338839948   -0.9078606667
H       -0.0740442642   -0.5564828189   -0.1655649560
H        4.0946647395   -0.3326797096    0.7005055540
H       -0.5613422589   -1.0055615140    2.2036748750
H        3.6849830449   -0.6754236684    4.4628835967
H        5.9152093114   -0.7782385974    4.0211094772
H        1.7834486862   -2.0968096437    4.6238541314
H        1.2985449011   -0.4057968644    4.9278536936
H        0.1120659441   -1.5988104993    4.3551481342
H        6.7625406026   -2.2072276987    2.3506823953
H        5.1923713599   -2.3286937365    1.5410712513
H        6.2460532258   -0.9133330044    1.2539416160
22   

C        2.0599674328   -0.4632702109    0.1377169226
C        0.7454522686   -0.6219114553    0.5602533329
C        3.1018335402   -0.5182928523    1.0652011801
C        0.4772827267   -0.8285559898    1.9118707184
C        2.8595696995   -0.7188581567    2.4407434345
C        1.5110873488   -0.8702221766    2.8638067318
C        3.9528406501   -0.7386497734    3.4356488000
C        5.2544893322   -0.9988925713    3.2117394484
C        1.1627553735   -1.1907939536    4.2984949962
C        5.8636128270   -1.6272916029    1.9867068803
H        2.2752121463   -0.2843997510   -0.9094734558
H       -0.0660338082   -0.5860436823   -0.1576865650
H        4.0988421894   -0.3371866072    0.6931049002
H       -0.5511553034   -0.9703647537    2.2227611895
H        3.6930346213   -0.5979876688    4.4777099004
H        5.9036457216   -0.9422532322    4.0787695746
H        1.7943615380   -2.0058901849    4.6665864995
H        1.3037716730   -0.3094618365    4.9300770318
H        0.1227338500   -1.5201500654    4.3829614973
H        6.7324058342   -2.2262306591    2.2757502648
H        5.1505069008   -2.2929816271    1.4908776504
H        6.2016171739   -0.8552277613    1.2893009389
22   

C        2.0547201808   -0.4887335487    0.1373502345
C        0.7409109827   -0.6231614918    0.5689074310
C        3.1003569810   -0.5326830542    1.0611076374
C        0.4772407415   -0.7930799296    1.9261208069
C        2.8641086041   -0.6975869135    2.4429809536
C        1.5148472186   -0.8220726942    2.8744644234
C        3.9580651193   -0.7077045078    3.4381311429
C        5.2327158947   -1.0947516037    3.2469790540
C        1.1677793568   -1.1099987659    4.3165265436
C        5.8574555298   -1.6106930191    1.9790487789
H        2.2668240993   -0.3363668222   -0.9146628257
H       -0.0733667863   -0.5968222259   -0.1462787424
H        4.0941091663   -0.3654369959    0.6758947289
H       -0.5511208818   -0.9176153572    2.2445002317
H        3.6989027478   -0.5512037787    4.4780277565
H        5.8640041165   -1.1151450666    4.1287070005
H        1.7932135042   -1.9230324747    4.6995537907
H        1.3175014967   -0.2172776007    4.9297285346
H        0.1255599694   -1.4297625537    4.4102900031
H        6.7459475379   -2.2003408421    2.2239052140
H        5.1662407676   -2.2644306030    1.4386017552
H        6.1713378756   -0.7793964323    1.3409713651
22   

C        2.0648263754   -0.4166897227    0.1449299313
C        0.7510922748   -0.4539830363    0.5969983839
C        3.0967867995   -0.8812555514    0.9622273802
C        0.4735529529   -0.9628380484    1.8640918610
C        2.8446591691   -1.4084809087    2.2465575105
C        1.4967399866   -1.4511610486    2.6955356924
C        3.9260596001   -1.9396228117    3.1032682177
C        5.2378426250   -1.6446831955    3.0370857067
C        1.1417382765   -1.9023731452    4.0929661882
C        5.8809450618   -0.4963587654    2.3060412440
H        2.2867277818   -0.0387893476   -0.8464750075
H       -0.0525085625   -0.0884383178   -0.0321570004
H        4.0918811140   -0.8785406955    0.5438223191
H       -0.5534740568   -0.9667225814    2.2099927402
H        3.6495671628   -2.5873680299    3.9261633382
H        5.8746059679   -2.1606574512    3.7474770306
H        1.2470010846   -2.9871673856    4.1805338065
H        1.7946140951   -1.4142149610    4.8238936889
H        0.1118318640   -1.6286630097    4.3412205103
H        6.2026094082   -0.8105701551    1.3087913212
H        5.1951404778    0.3527773513    2.2276174507
H        6.7647549193   -0.1605392508    2.8566599158
22   

C        2.0570310403   -0.4343570761    0.1323332602
C        0.7423497146   -0.4565520893    0.5845514199
C        3.0867091890   -0.8828170501    0.9616098723
C        0.4617152376   -0.9314063024    1.8646330445
C        2.8291081864   -1.3790193285    2.2561006250
C        1.4827048789   -1.4020114291    2.7087422166
C        3.9150337739   -1.8907034038    3.1183492119
C        5.2400121978   -1.6998802725    2.9590494615
C        1.1273882128   -1.8228920411    4.1153469738
C        5.9150569331   -0.5078940355    2.3307756808
H        2.2812216519   -0.0791394079   -0.8669029711
H       -0.0597072625   -0.1044705277   -0.0541794323
H        4.0872116393   -0.8862849913    0.5542054139
H       -0.5655907741   -0.9237835061    2.2097178730
H        3.6359441153   -2.5169607668    3.9568395613
H        5.8741618901   -2.2793147541    3.6212206372
H        1.2360000620   -2.9052448036    4.2267898080
H        1.7785446177   -1.3171945726    4.8357389281
H        0.0961134012   -1.5477040511    4.3561146566
H        6.2486116615   -0.7503707127    1.3175409439
H        5.2376998073    0.3511466079    2.2976563865
H        6.7913958107   -0.2252751115    2.9217455306
22   

C        2.0351776208   -0.4585972627    0.1086835065
C        0.7215829014   -0.4758157948    0.5665623372
C        3.0706835054   -0.8726668486    0.9487734071
C        0.4480948983   -0.9075953418    1.8639719914
C        2.8177360668   -1.3290617652    2.2572417952
C        1.4753490120   -1.3413642524    2.7199683332
C        3.9198344465   -1.7996901563    3.1208236859
C        5.2469771090   -1.7224261708    2.8729396210
C        1.1296964032   -1.7252205011    4.1393633004
C        5.9987333743   -0.5274471151    2.3412925180
H        2.2538322811   -0.1315211586   -0.9013188557
H       -0.0853312514   -0.1516478803   -0.0807689200
H        4.0762417812   -0.8716547032    0.5511605289
H       -0.5781796572   -0.8967066630    2.2121153194
H        3.6425887539   -2.3883317192    3.9866127434
H        5.8585277357   -2.3650741704    3.4969927173
H        1.2601541953   -2.8013865203    4.2836311428
H        1.7720272269   -1.1852595693    4.8425092975
H        0.0930169172   -1.4646166278    4.3729264192
H        6.3312506627   -0.7162136277    1.3163675578
H        5.3632591359    0.3636703613    2.3537246015
H        6.8783739204   -0.3323827196    2.9620161936
22   

C        1.9948737607   -0.4845156609    0.0796458366
C        0.6846614778   -0.4949694524    0.5494476620
C        3.0400434518   -0.8609582454    0.9256723924
C        0.4244695190   -0.8789791700    1.8651084364
C        2.7983672414   -1.2711830044    2.2498843775
C        1.4620180038   -1.2720134460    2.7282171380
C        3.9214517437   -1.6985684586    3.1090830210
C        5.2419759419   -1.7308743493    2.7963906330
C        1.1321173286   -1.6156786211    4.1614797307
C        6.1077973731   -0.5631689280    2.3833631955
H        2.2031755221   -0.1897509100   -0.9424123722
H       -0.1301410968   -0.2014926456   -0.1026226253
H        4.0484672732   -0.8580726963    0.5322336721
H       -0.5991897288   -0.8645250053    2.2208170647
H        3.6466320389   -2.2431402872    4.0038370107
H        5.8071827009   -2.4443379126    3.3863660063
H        1.2882001250   -2.6833482419    4.3403247514
H        1.7659094564   -1.0386112191    4.8424312734
H        0.0904666299   -1.3728213969    4.3918988297
H        6.4476099121   -0.6947378158    1.3519580801
H        5.5437072495    0.3722124730    2.4528967539
H        6.9832560161   -0.4922521346    3.0358032743
22   

C        1.9197145350   -0.5459968150    0.0374280031
C        0.6192160017   -0.5406959067    0.5347373153
C        2.9853877816   -0.8631411450    0.8822584996
C        0.3894052847   -0.8476099283    1.8764476762
C        2.7739010709   -1.1922928157    2.2327078900
C        1.4484994215   -1.1759533829    2.7404693984
C        3.9266234170   -1.5531267161    3.0810851179
C        5.2385905003   -1.6996196582    2.7315325726
C        1.1493473586   -1.4555989162    4.1942897354
C        6.2506737079   -0.6176219663    2.4240520013
H        2.1044917185   -0.3080656667   -1.0037954991
H       -0.2118849209   -0.2954062750   -0.1166659970
H        3.9896597620   -0.8691815924    0.4763439793
H       -0.6275706520   -0.8265623632    2.2505745604
H        3.6626737918   -2.0191926379    4.0219573174
H        5.7287487822   -2.4750940549    3.3104642342
H        1.3492970836   -2.5059423267    4.4256615820
H        1.7685721320   -0.8202249347    4.8353406347
H        0.1012030381   -1.2441838017    4.4260845353
H        6.6065664482   -0.7207674650    1.3948637763
H        5.7946142601    0.3703774935    2.5405050511
H        7.1057294705   -0.6913785272    3.1027990448
22   

C        1.8224792254   -0.6039525842   -0.0003628977
C        0.5373133811   -0.5836049559    0.5354169015
C        2.9155673618   -0.8706003835    0.8267285926
C        0.3503273811   -0.8241596745    1.8973526356
C        2.7473863716   -1.1288996072    2.1976765631
C        1.4379488475   -1.0977032893    2.7449453621
C        3.9329503842   -1.4362005917    3.0214303385
C        5.2415866369   -1.6451174488    2.6562640925
C        1.1829841715   -1.3220833651    4.2166713671
C        6.3814341860   -0.6558966561    2.5141390567
H        1.9740870364   -0.4164060691   -1.0571295650
H       -0.3152382238   -0.3792565102   -0.1022481486
H        3.9092973511   -0.8879292022    0.3951644116
H       -0.6557259884   -0.7967022340    2.2995511600
H        3.6964591885   -1.8236777119    4.0040746700
H        5.6505161639   -2.4938424219    3.1942501493
H        1.4259649846   -2.3537170299    4.4882683566
H        1.7939452627   -0.6379084764    4.8137202635
H        0.1331922087   -1.1396610824    4.4649314449
H        6.7862566076   -0.6969063354    1.4988217385
H        6.0241889409    0.3600405565    2.7080780486
H        7.1817187920   -0.8875181596    3.2235718488
