25   

C       -0.2394542158   -5.5681374160   -3.7790585562
C        0.0371698794   -4.7721853972   -2.5916559647
C       -0.4762089037   -4.7867473661   -4.8794522879
C       -0.0320743216   -1.0294296803   -1.8552106658
C        0.2404608229   -2.3720519471   -1.8595235012
C       -0.0001617853   -3.4173698093   -2.8393193816
C        0.4367672902   -0.5476013262   -0.5688651645
C       -2.2025690941   -0.3142744513   -2.9222601534
C        0.3307970547    0.8454420931   -0.0217312693
C       -0.6832567182   -0.1624551994   -2.9153015592
N        0.9374679579   -1.5381735879    0.1208474555
N        0.8188893528   -2.6537362351   -0.6506856914
O       -2.7561085636   -0.5384164041   -3.9863029727
O       -2.8670042361   -0.1639148762   -1.7486627035
S       -0.3707744533   -3.0698988982   -4.5109459257
H       -0.2590964510   -6.6526579995   -3.7915475225
H        0.2371221553   -5.2145181221   -1.6235391728
H       -0.7057016121   -5.1694994197   -5.8672813009
H       -0.5539614271    1.3487714543   -0.4195613484
H        0.2574787498    0.8139217897    1.0691785864
H        1.2215028432    1.4166055570   -0.2961436863
H       -0.2779033900   -0.3949025685   -3.9020403502
H       -0.4505384077    0.8884055763   -2.7297405623
H        1.1440010122   -3.5779749129   -0.3797189889
H       -3.8067502819   -0.3117038357   -1.9414169012
25   

C       -0.2555248347   -5.4380138412   -4.0003945193
C       -0.1126029623   -4.6790522504   -2.7661238547
C       -0.1104075170   -4.6471887694   -5.1106667117
C        0.0582133832   -1.0041052636   -1.9074920796
C        0.3398292724   -2.3406023283   -1.9612229066
C        0.1325320198   -3.3438956784   -2.9927386050
C        0.4917199144   -0.5759477892   -0.5902257130
C       -2.1106294946   -0.2647427547   -2.9049897422
C        0.3750195986    0.7945904579    0.0089255865
C       -0.5933416782   -0.1148992651   -2.9450579183
N        0.9684914255   -1.5968541762    0.0732782196
N        0.8747282051   -2.6797696321   -0.7478975860
O       -2.6548032329   -0.9382224696   -3.7645149975
O       -2.7859373670    0.4097591881   -1.9409658125
S        0.2027502305   -2.9659761450   -4.6950898536
H       -0.4583644842   -6.5029336009   -4.0377893153
H       -0.2070204904   -5.1233331395   -1.7824824189
H       -0.1834443196   -5.0033143010   -6.1317548256
H       -0.4737893343    1.3331053195   -0.4195750204
H        0.2349155436    0.7183530790    1.0910149151
H        1.2907063862    1.3590333532   -0.1853659907
H       -0.2231666538   -0.3445452600   -3.9457149347
H       -0.3418340657    0.9308587883   -2.7527646677
H        1.1987817179   -3.6150722385   -0.5141163974
H       -3.7244246665    0.1892802128   -2.0566515944
25   

C       -0.3044382052   -5.3574895469   -4.0030347118
C       -0.2513704044   -4.5822794980   -2.7714652893
C        0.1189662232   -4.6320533358   -5.0876485376
C        0.0848226254   -0.9704016625   -1.8991121565
C        0.3992661791   -2.2969924972   -1.9443949881
C        0.2026457551   -3.3020727775   -2.9789424208
C        0.5154405338   -0.5232345943   -0.5869987926
C       -2.1300353702   -0.2407963879   -2.7812424300
C        0.4159803534    0.8578826794   -0.0094881489
C       -0.6179388713   -0.1331398746   -2.9454596426
N        1.0377500032   -1.5254091523    0.0726071536
N        0.9749828727   -2.6141193461   -0.7450194134
O       -2.7476996020   -0.9814683035   -3.5286027904
O       -2.7200072546    0.5372977276   -1.8396098054
S        0.5926513949   -2.9929134980   -4.6525641157
H       -0.6440418561   -6.3862351731   -4.0573423463
H       -0.5503452598   -4.9692223083   -1.8041725761
H        0.1562445690   -5.0120370181   -6.1020630822
H       -0.4937713643    0.9355529589    0.5919521017
H        1.2767242686    1.0551262360    0.6357568735
H        0.3823579248    1.6120407785   -0.7984773562
H       -0.3356111854   -0.4486215823   -3.9515733838
H       -0.3285501146    0.9155521380   -2.8494245247
H        1.3346422027   -3.5381378268   -0.5166785587
H       -3.6682132748    0.3297541400   -1.8664802881
25   

C       -0.3666271546   -5.3332134201   -4.0360281822
C       -0.3988748047   -4.5441299607   -2.8122416988
C        0.3017807989   -4.6905659156   -5.0482227486
C        0.0442352201   -1.0231702032   -1.8738629037
C        0.4144036417   -2.3321734013   -1.9144152642
C        0.2384271745   -3.3374744119   -2.9568747610
C        0.4981175458   -0.5410580008   -0.5831582464
C       -2.2094497510   -0.3009712074   -2.6522752122
C        0.3599004440    0.8444067975   -0.0254381961
C       -0.7104554136   -0.2429240702   -2.9260149734
N        1.0866597327   -1.5119776192    0.0688421059
N        1.0454399433   -2.6131347011   -0.7350036433
O       -2.8800776121   -1.1284532675   -3.2475360543
O       -2.7308508315    0.6079438859   -1.7911002535
S        0.9110374363   -3.1131745276   -4.5547314065
H       -0.8225744059   -6.3122907323   -4.1366461982
H       -0.8805360637   -4.8651267596   -1.8955818690
H        0.4398483796   -5.0960541306   -6.0438962501
H       -0.5009393856    0.8816670599    0.6474232260
H        1.2562077026    1.1081260740    0.5429864145
H        0.2146795368    1.5752146997   -0.8239243728
H       -0.5081858866   -0.6448827108   -3.9216248798
H       -0.3882325764    0.8010015488   -2.9264552708
H        1.4479185149   -3.5204063751   -0.5098521417
H       -3.6804691753    0.4141583720   -1.7298295597
25   

C       -1.1496602608   -5.0914346259   -4.3680675167
C       -1.3354992709   -4.2762715112   -3.1753014275
C        0.0960862184   -4.9239195106   -4.9210640184
C       -0.0759886498   -1.2525069397   -1.7352220688
C       -0.0727358126   -2.6112370407   -1.7546113880
C       -0.2230728286   -3.5303678158   -2.8823393920
C        0.1252609083   -0.8923095192   -0.3453425503
C       -1.7335302247    0.0929158464   -3.0152871626
C        0.2243158943    0.4883607990    0.2315479447
C       -0.2705113618   -0.3242645451   -2.9108818455
N        0.2315339648   -1.9773493929    0.3801405610
N        0.1138398266   -3.0380588155   -0.4703214631
O       -2.4886326034   -0.5885490788   -3.6895735934
O       -2.1137878498    1.2300008522   -2.3815463424
S        1.0835100374   -3.7768030735   -4.0191036225
H       -1.9108125988   -5.7485021832   -4.7748780748
H       -2.2496833885   -4.2455175428   -2.5929923783
H        0.4410089849   -5.4311328165   -5.8147148367
H       -0.7387967456    0.7730120088    0.6633220024
H        0.9787232660    0.5077481747    1.0230797169
H        0.4939558573    1.2146018933   -0.5384856380
H        0.0325383627   -0.8167487237   -3.8388570226
H        0.3509368597    0.5671116448   -2.7950446028
H        0.1706952923   -4.0181420516   -0.2013911367
H       -3.0662668635    1.3287458382   -2.5434409313
25   

C       -1.1351710501   -4.8979236173   -4.4607101013
C       -1.3161877425   -4.0350757829   -3.3013388559
C        0.1875238144   -5.0333845226   -4.8047376639
C       -0.0451085851   -1.2805773904   -1.7030234211
C        0.0409160556   -2.6362598419   -1.6980115104
C       -0.1225733426   -3.5723850782   -2.8116490179
C        0.1574017770   -0.8807025689   -0.3249483683
C       -1.8032916840   -0.0160059436   -2.9336713610
C        0.1901100949    0.5165398131    0.2182837317
C       -0.3256903584   -0.3923136156   -2.8916652293
N        0.3297991460   -1.9430874395    0.4207646959
N        0.2551344671   -3.0261930215   -0.4066000802
O       -2.6021104481   -0.8308227405   -3.3677403146
O       -2.1532262661    1.2217707574   -2.5046174234
S        1.2566299066   -4.1259307267   -3.7376274757
H       -1.9535407574   -5.3686159210   -4.9948262470
H       -2.2801947715   -3.7605041919   -2.8860846131
H        0.5435113405   -5.6254901422   -5.6399090902
H       -0.7818147430    0.7612521844    0.6547058068
H        0.9508414834    0.5940695964    1.0001381089
H        0.4135872410    1.2365234332   -0.5722935423
H       -0.0584160208   -0.9047453570   -3.8200160226
H        0.2789904789    0.5162719697   -2.8328914735
H        0.3472460671   -3.9974963797   -0.1162345651
H       -3.1193885495    1.2781770449   -2.5862828753
25   

C       -1.1343822493   -4.8317049920   -4.5417045794
C       -1.2992312816   -3.8926095015   -3.4408313327
C        0.1730962202   -5.2194090830   -4.7014495921
C       -0.0618985178   -1.3166614929   -1.7337476784
C        0.0752670196   -2.6694887443   -1.7163071596
C       -0.1133948575   -3.6243547523   -2.8065492069
C        0.1766909237   -0.8916983405   -0.3687325277
C       -1.8781300844   -0.0460307596   -2.8885904852
C        0.1822194392    0.5130819023    0.1558054326
C       -0.4058071564   -0.4448049870   -2.9192281986
N        0.4138760501   -1.9368248759    0.3830359678
N        0.3474586871   -3.0328222863   -0.4275135627
O       -2.7070213481   -0.8403958091   -3.3033015886
O       -2.1901812370    1.1909316721   -2.4295715053
S        1.2461820053   -4.4653622591   -3.5249730045
H       -1.9515073154   -5.1751411726   -5.1669871606
H       -2.2441057982   -3.4370703485   -3.1634267022
H        0.5167298105   -5.9079006620   -5.4648356878
H       -0.7840298417    0.7344172626    0.6166282597
H        0.9620642997    0.6242321284    0.9144156342
H        0.3611536662    1.2285909772   -0.6500817815
H       -0.1958032871   -0.9743973856   -3.8526796184
H        0.2123394088    0.4566404904   -2.9104868406
H        0.4774552888   -3.9966712947   -0.1269055657
H       -3.1577916721    1.2644006328   -2.4723585129
25   

C       -1.1225772752   -4.7940505288   -4.6099132197
C       -1.2790701941   -3.7806875963   -3.5758501868
C        0.1244652210   -5.3670655704   -4.5902207937
C       -0.1239103868   -1.3233177129   -1.7403978485
C        0.0481214302   -2.6742984023   -1.7347131845
C       -0.1481538487   -3.6357111447   -2.8124791643
C        0.1638476403   -0.8973718881   -0.3844280495
C       -1.9811384945   -0.0210041326   -2.8096162705
C        0.1629500605    0.5048555299    0.1473558221
C       -0.5172074084   -0.4417267048   -2.9046853598
N        0.4624542486   -1.9377783030    0.3511907812
N        0.3895953636   -3.0320217950   -0.4603460692
O       -2.8322390796   -0.7623913992   -3.2735688492
O       -2.2607598511    1.1830919136   -2.2532617594
S        1.1479569273   -4.7021112598   -3.3202999035
H       -1.9024467318   -5.0582143710   -5.3161057498
H       -2.1834805504   -3.2013822572   -3.4280404065
H        0.4523400397   -6.1396672695   -5.2761464054
H       -0.7907785524    0.7071564565    0.6417702252
H        0.9662662113    0.6263109599    0.8794522088
H        0.3020756774    1.2273829608   -0.6601167275
H       -0.3522037188   -0.9661831089   -3.8498955764
H        0.1108286068    0.4528061173   -2.9192724104
H        0.5592043365   -3.9926925626   -0.1694459432
H       -3.2273659183    1.2775053238   -2.2734478015
25   

C       -1.0723116160   -4.7318825363   -4.7064211525
C       -1.2054071546   -3.6606339439   -3.7292476053
C        0.0728013461   -5.4638435758   -4.5203987683
C       -0.1526570610   -1.3220137962   -1.7397712361
C        0.0384130219   -2.6726883389   -1.7614108733
C       -0.1577160718   -3.6249228291   -2.8423469620
C        0.1879411442   -0.9110740501   -0.3904790200
C       -2.0466320011   -0.0059064328   -2.7392047831
C        0.1942564735    0.4821608126    0.1651636694
C       -0.5814442900   -0.4134355701   -2.8718836771
N        0.5384238073   -1.9557012947    0.3146764541
N        0.4490549507   -3.0383987112   -0.5094492126
O       -2.8916062802   -0.6748862258   -3.3113514267
O       -2.3324619921    1.1175947373   -2.0369449684
S        1.0243376134   -4.8811960863   -3.1584293583
H       -1.7967474994   -4.9242135369   -5.4906009089
H       -2.0432581461   -2.9748000061   -3.7035834134
H        0.3670711971   -6.3052047918   -5.1372109169
H       -0.7458884533    0.6699141071    0.6903334307
H        1.0179802189    0.5968569312    0.8753729350
H        0.3054616217    1.2196378049   -0.6329454000
H       -0.4247457181   -0.9063489455   -3.8350850543
H        0.0361813836    0.4883268910   -2.8733844855
H        0.6531440784   -3.9989553094   -0.2412189702
H       -3.2986420578    1.2162436900   -2.0575082681
25   

C       -0.9745572443   -4.6716586957   -4.7682107962
C       -1.0817127479   -3.5435138481   -3.8542202659
C        0.0271188518   -5.5357287058   -4.4092336792
C       -0.1920525845   -1.2888785193   -1.7253308214
C        0.0185843682   -2.6392502899   -1.7586590364
C       -0.1543661962   -3.5911959605   -2.8407439155
C        0.1744101328   -0.8782507153   -0.3817116273
C       -2.1211246699   -0.0185835605   -2.7260665853
C        0.1684069341    0.5098870374    0.1877939535
C       -0.6382025833   -0.3639564634   -2.8387955655
N        0.5672364830   -1.9178104912    0.3069948462
N        0.4794530155   -2.9966102015   -0.5210043851
O       -2.9136169169   -0.6147093857   -3.4369925852
O       -2.4782195161    0.9815360876   -1.8838916591
S        0.8702058162   -5.0100136487   -2.9568834712
H       -1.6170726311   -4.8098297995   -5.6312598005
H       -1.8279158964   -2.7673801353   -3.9614014684
H        0.2777768643   -6.4403442078   -4.9512672772
H       -0.7646046068    0.6763946992    0.7324749200
H        1.0034021607    0.6314988435    0.8835653378
H        0.2520820386    1.2582780483   -0.6032058192
H       -0.4346926811   -0.8138722070   -3.8138171633
H       -0.0615633699    0.5634141947   -2.7991607618
H        0.7176500263   -3.9524426652   -0.2643199638
H       -3.4449863902    1.0570420233   -1.9405658434
25   

C       -0.8422331354   -4.6508873322   -4.8157281087
C       -0.8958444537   -3.4759254699   -3.9580940474
C       -0.0297229365   -5.6278038899   -4.3052027311
C       -0.1907411961   -1.2908839062   -1.7053932794
C        0.0450753445   -2.6406706168   -1.7512960624
C       -0.1159560001   -3.5971241929   -2.8306256015
C        0.2407862774   -0.8700548364   -0.3835184854
C       -2.1895978370   -0.1630336664   -2.7660445165
C        0.2087421113    0.5107774040    0.2034457681
C       -0.6734353277   -0.3495643716   -2.7912092977
N        0.6793049510   -1.9004867083    0.2885086486
N        0.5616383153   -2.9819931210   -0.5301132305
O       -2.8462950385   -0.6203102735   -3.6872138409
O       -2.7267390343    0.5572731670   -1.7513391591
S        0.6943266646   -5.1524908094   -2.7749291295
H       -1.3890692268   -4.7402917056   -5.7483531644
H       -1.5110921371   -2.6194267406   -4.1929937323
H        0.1502967875   -6.5849596517   -4.7810330726
H       -0.4998012832    1.1488729598   -0.3285640119
H       -0.0811874130    0.4597887290    1.2566489711
H        1.2046148458    0.9571845584    0.1405106236
H       -0.3538878248   -0.7068136139   -3.7732450369
H       -0.2078544469    0.6300534425   -2.6567328166
H        0.8274511587   -3.9325222433   -0.2810393346
H       -3.6868598508    0.5679847488   -1.8968461305
25   

C       -0.7379675770   -4.6495717303   -4.9994701953
C       -0.6672548557   -3.4507610408   -4.1768335090
C       -0.2095912379   -5.7429932315   -4.3684321799
C       -0.0999802751   -1.3715078494   -1.7886447107
C        0.1230669007   -2.7236446444   -1.8674474981
C       -0.0799948880   -3.6698881101   -2.9498637425
C        0.3598183373   -0.9790599593   -0.4680919518
C       -2.1454086441   -0.3540993810   -2.8607591482
C        0.3126396204    0.3860267010    0.1536626175
C       -0.6198774553   -0.3949403296   -2.8247203973
N        0.8179735970   -2.0215477434    0.1697587459
N        0.6795215568   -3.0844241560   -0.6690756187
O       -2.7125332889   -0.7371743607   -3.8711334578
O       -2.7934239453    0.1606752915   -1.7870455610
S        0.3894535653   -5.3516370482   -2.7632071763
H       -1.1673780849   -4.6708505891   -5.9954369455
H       -1.0634962601   -2.5061913091   -4.5186815375
H       -0.1644872063   -6.7366563513   -4.7991949309
H       -0.4966455129    0.9813937382   -0.2757786296
H        0.1530403398    0.2990107923    1.2321643891
H        1.2629848923    0.8988046163   -0.0167842850
H       -0.2192128089   -0.6357695903   -3.8116258546
H       -0.2608186037    0.6111191367   -2.5951588138
H        0.9538893304   -4.0390887261   -0.4465644925
H       -3.7431055201    0.0986853668   -1.9798293212
25   

C       -0.7955676788   -4.5213381121   -4.9197204460
C       -0.5091709858   -3.3103863841   -4.1644477526
C       -0.6848606962   -5.6495123309   -4.1515996958
C       -0.0479699619   -1.2428991847   -1.7475815523
C        0.1362986170   -2.5998858606   -1.8109688338
C       -0.1963372879   -3.5602435353   -2.8467708235
C        0.4673727750   -0.8443748648   -0.4501371943
C       -2.1500956070   -0.5678183179   -2.9891131259
C        0.4613549477    0.5284435490    0.1554460686
C       -0.6628524388   -0.3019476478   -2.7653338575
N        0.9190539891   -1.8905522095    0.1879873141
N        0.7181172877   -2.9630919081   -0.6264854747
O       -2.5488250017   -0.6499936167   -4.1398626213
O       -2.9564076833   -0.6853572199   -1.9052219003
S       -0.2327103272   -5.2787351269   -2.4934267885
H       -1.0671811294   -4.5250446434   -5.9699775316
H       -0.5408931805   -2.3301566200   -4.6195563231
H       -0.8561649900   -6.6564612084   -4.5144821168
H       -0.4351691966    1.0765661558   -0.1447741778
H        0.4804443029    0.4564777424    1.2468576893
H        1.3458113564    1.0795325767   -0.1748854349
H       -0.1210020907   -0.3749203089   -3.7109919367
H       -0.5571253637    0.7323102238   -2.4316770488
H        0.9632127788   -3.9235456212   -0.3951236856
H       -3.8465770176   -0.8808095308   -2.2392045753
25   

C       -0.7846914901   -4.4262071220   -4.9211178544
C       -0.3473617108   -3.2566310336   -4.1727969292
C       -0.9794374784   -5.5156816578   -4.1120385804
C       -0.0201801753   -1.2073627015   -1.7206964676
C        0.1613939949   -2.5610809937   -1.7944851607
C       -0.2312951121   -3.5034631077   -2.8252391934
C        0.5416692653   -0.8180559825   -0.4401670549
C       -2.1427961348   -0.7532462353   -3.0496925333
C        0.6210860734    0.5615537034    0.1438158668
C       -0.7268448284   -0.2931125442   -2.7039907491
N        1.0270487271   -1.8679098734    0.1693383996
N        0.8019533340   -2.9364345373   -0.6457055590
O       -2.4839676388   -0.7058199974   -4.2208123891
O       -2.9498209859   -1.1888536836   -2.0505851169
S       -0.6409137237   -5.1594570859   -2.4221238179
H       -0.9409420505   -4.4300969020   -5.9946031326
H       -0.1373757917   -2.3013922437   -4.6382007325
H       -1.3067919197   -6.4873935855   -4.4635748993
H       -0.2791772639    0.7607539286    0.7315402840
H        1.4910053150    0.6393280461    0.8023506745
H        0.7056068935    1.3124684922   -0.6451446468
H       -0.1329034419   -0.2155722916   -3.6181558889
H       -0.8062755361    0.7126350598   -2.2864199739
H        1.0612646629   -3.8979178527   -0.4350919975
H       -3.7786659219   -1.4745813404   -2.4666962832
25   

C       -0.7131897409   -4.4174355992   -4.9412008197
C       -0.1882716870   -3.2798390391   -4.1995794561
C       -1.1321747234   -5.4272835263   -4.1123042036
C       -0.0519759623   -1.1804794989   -1.7495017557
C        0.1718113997   -2.5252711840   -1.8187964623
C       -0.2252845715   -3.4783871825   -2.8413467857
C        0.5495129954   -0.7630833419   -0.4966528563
C       -2.1869768279   -0.8869871509   -3.1139538949
C        0.6012323236    0.6229473942    0.0744254069
C       -0.8247766504   -0.3123968105   -2.7248563815
N        1.1047826359   -1.7904248416    0.0935591991
N        0.8860729557   -2.8729405894   -0.7059712785
O       -2.5059849720   -0.8394159934   -4.2913360350
O       -2.9734630963   -1.4185780930   -2.1453546607
S       -0.9040541626   -5.0346939348   -2.4109173784
H       -0.7717272610   -4.4555339970   -6.0237318556
H        0.1794621702   -2.3738349382   -4.6673739391
H       -1.5595163032   -6.3621107226   -4.4564213158
H       -0.2561630544    0.7770403812    0.7352072529
H        1.5173160917    0.7523814785    0.6578888648
H        0.5777402787    1.3714272796   -0.7209937181
H       -0.2245041886   -0.1662397405   -3.6267096709
H       -0.9998557421    0.6722966973   -2.2862526949
H        1.1946084029   -3.8223029770   -0.5069568134
H       -3.7605388751   -1.7710795422   -2.5902631000
25   

C       -0.6553781930   -4.4244846493   -4.9194952062
C       -0.0500986306   -3.3393005151   -4.1603902785
C       -1.2934524372   -5.3304382359   -4.1094876665
C       -0.0851654573   -1.1885578825   -1.7047054460
C        0.1652545316   -2.5261101571   -1.7853742145
C       -0.2430742693   -3.4791156316   -2.8092347801
C        0.5648899781   -0.7592373683   -0.4808648875
C       -2.2339842207   -0.9823966443   -3.0677945947
C        0.6093486101    0.6273008565    0.0891739523
C       -0.9081784180   -0.3418116447   -2.6571581608
N        1.1787203208   -1.7729836741    0.0753113873
N        0.9510404605   -2.8592106317   -0.7174584571
O       -2.5338991511   -0.9569700168   -4.2508776638
O       -3.0145797053   -1.5395437322   -2.1089840520
S       -1.1802111809   -4.9024618420   -2.4046294485
H       -0.6142867287   -4.4996446704   -6.0008592918
H        0.4752409534   -2.5034980268   -4.6086140262
H       -1.8143753693   -6.2101547838   -4.4695381221
H       -0.2069493227    0.7534150031    0.8055227564
H        1.5573428992    0.7858806702    0.6112301051
H        0.5089746625    1.3747534519   -0.7012447043
H       -0.3163997082   -0.1401645534   -3.5541428492
H       -1.1386296546    0.6192348734   -2.1921333645
H        1.2981775716   -3.7998132914   -0.5416483747
H       -3.7746139453   -1.9324515135   -2.5668446119
25   

C        0.3447733625   -4.9054894053   -4.5164016524
C        0.7839158955   -3.9109128221   -3.5472811533
C       -0.9431416621   -5.3199935332   -4.2835836322
C       -0.0651984744   -1.2857775675   -1.6174283727
C       -0.0743647676   -2.6433029655   -1.5445381946
C       -0.1865183346   -3.6273783162   -2.6204938810
C        0.0865234162   -0.8327896272   -0.2483334694
C       -1.6643989617   -0.0317086496   -3.0600368799
C        0.1711983393    0.5830710503    0.2386330708
C       -0.2078728551   -0.4374977723   -2.8597992579
N        0.1604222097   -1.8664578498    0.5519808144
N        0.0607877156   -2.9818403793   -0.2278357444
O       -2.3550352680   -0.6922173780   -3.8185126254
O       -2.1049505571    1.0804304248   -2.4207790026
S       -1.6624047406   -4.5246226429   -2.8858655048
H        0.9612375910   -5.2699503026   -5.3310586895
H        1.7591735192   -3.4374118428   -3.5569890915
H       -1.4699912883   -6.0492909383   -4.8880691169
H       -0.8070646953    0.8989608736    0.6106837996
H        0.8927422036    0.6529624770    1.0574352531
H        0.4754907540    1.2555024043   -0.5664621769
H        0.1381776223   -0.9887007176   -3.7383630508
H        0.4052903032    0.4628720436   -2.7745356082
H        0.0760538103   -3.9415366746    0.1113842954
H       -3.0442434846    1.1738075210   -2.6494814479
25   

C        0.4226286037   -5.0569382335   -4.4138530661
C        0.8776301071   -4.0990863330   -3.4153908945
C       -0.9374604037   -5.2395937801   -4.3719159576
C       -0.0961126116   -1.2652180193   -1.6427975977
C       -0.0346463348   -2.6213253610   -1.5858038933
C       -0.1577080707   -3.6046496031   -2.6641894282
C        0.0887819026   -0.8197982216   -0.2754141023
C       -1.7898163835   -0.0315027077   -2.9977241217
C        0.1312568652    0.5939663877    0.2226951174
C       -0.3189922489   -0.4150540136   -2.8717291955
N        0.2410034382   -1.8572824326    0.5092853441
N        0.1620425807   -2.9684091474   -0.2791674586
O       -2.5100271563   -0.7078273543   -3.7135564752
O       -2.2119386675    1.0801790443   -2.3454334767
S       -1.7084757157   -4.2621263553   -3.1254285048
H        1.0810877549   -5.5627550974   -5.1118192699
H        1.9115671799   -3.8017261689   -3.2808206692
H       -1.4869136998   -5.9035607648   -5.0292739874
H       -0.8451728979    0.8649677159    0.6329180127
H        0.8787767951    0.6875625319    1.0154106036
H        0.3772972458    1.2851225350   -0.5865419890
H       -0.0083533055   -0.9583513787   -3.7686340992
H        0.2837742468    0.4945712567   -2.8136900019
H        0.2253348608   -3.9300751104    0.0486606169
H       -3.1625636966    1.1600174983   -2.5277068782
25   

C        0.4695757738   -5.1489300870   -4.3321026924
C        0.9379915305   -4.2419762899   -3.2931324151
C       -0.8892583927   -5.0711616881   -4.5110067115
C       -0.0613182084   -1.1993717496   -1.6508967981
C        0.0518342948   -2.5536687109   -1.6459483201
C       -0.0855882678   -3.5146572122   -2.7404103529
C        0.1522350609   -0.7975989430   -0.2740813782
C       -1.8047705114    0.1400992894   -2.8445488143
C        0.1730414149    0.5989345986    0.2715802943
C       -0.3463746746   -0.3079349387   -2.8373821797
N        0.3598179325   -1.8566618996    0.4680338749
N        0.2913629935   -2.9412066502   -0.3573677540
O       -2.6261661638   -0.5546459620   -3.4197511033
O       -2.1072623784    1.3216572317   -2.2518267001
S       -1.6426438955   -3.8998472989   -3.4323913240
H        1.1187285257   -5.8081999959   -4.8983206316
H        1.9743067993   -4.1482942885   -2.9884063011
H       -1.4471140994   -5.6564949090   -5.2328717952
H       -0.7947016178    0.8275161883    0.7257712744
H        0.9464735253    0.6873342713    1.0396822287
H        0.3704169850    1.3236196042   -0.5217111634
H       -0.1280555963   -0.8376227207   -3.7689296984
H        0.2989716862    0.5735620527   -2.8038286379
H        0.3811765483   -3.9118507870   -0.0642899864
H       -3.0669052889    1.4372698478   -2.3478141473
25   

C        0.4826297349   -5.3084152628   -4.2436085313
C        0.9177361361   -4.4135037431   -3.1801207261
C       -0.8154493758   -5.0701244060   -4.6198518953
C       -0.1436386650   -1.2049341557   -1.7325191455
C        0.0481074229   -2.5516228068   -1.7314263656
C       -0.0657976036   -3.5310813951   -2.8070151948
C        0.1038521670   -0.7878724219   -0.3656102683
C       -1.9782994681    0.0967538056   -2.8384631113
C        0.0757557775    0.6098619731    0.1768723901
C       -0.5127602681   -0.3236119722   -2.9041489307
N        0.4021984187   -1.8306970822    0.3681815456
N        0.3619426056   -2.9196159270   -0.4526763577
O       -2.8173333023   -0.6276821565   -3.3475460984
O       -2.2703642568    1.2877085137   -2.2597813603
S       -1.5489598600   -3.7569852149   -3.7037401660
H        1.1108207172   -6.0741202744   -4.6860462145
H        1.9055950701   -4.4382885122   -2.7341151404
H       -1.3407399071   -5.6191273715   -5.3928903106
H       -0.8913091553    0.7983984507    0.6503578140
H        0.8606694392    0.7341068516    0.9282250722
H        0.2258102473    1.3397383122   -0.6220456026
H       -0.3303467504   -0.8491821601   -3.8455028216
H        0.1153324655    0.5709758163   -2.9057366962
H        0.5116669285   -3.8827989324   -0.1599998862
H       -3.2358909891    1.3835328600   -2.3059642194
25   

C        0.4289959799   -5.3835418158   -4.1580138187
C        0.8319369505   -4.5309443663   -3.0482791094
C       -0.7595065400   -4.9813986951   -4.7124255815
C       -0.1695538428   -1.1865964535   -1.7345985295
C        0.0471562907   -2.5318163785   -1.7475490235
C       -0.0642518194   -3.5151654338   -2.8149111295
C        0.1262528570   -0.7696866691   -0.3766757153
C       -2.0532921148    0.1034439755   -2.7759923469
C        0.0955239488    0.6245175438    0.1755289330
C       -0.5823435619   -0.2899309175   -2.8809022307
N        0.4781597242   -1.8076754229    0.3389812182
N        0.4271625913   -2.8934135373   -0.4843544963
O       -2.8904912970   -0.6200539486   -3.2892555739
O       -2.3530491680    1.2734381056   -2.1598061729
S       -1.4246197594   -3.5612485323   -3.9121438484
H        1.0016391613   -6.2365736157   -4.5060282742
H        1.7416942907   -4.6783017898   -2.4777236109
H       -1.2438936247   -5.4721109418   -5.5487784991
H       -0.8577535385    0.7956090374    0.6823539712
H        0.9034263386    0.7563374354    0.9008086248
H        0.2079135073    1.3620689564   -0.6224160243
H       -0.4065283138   -0.7882678454   -3.8376707421
H        0.0281436485    0.6166858120   -2.8774918580
H        0.6075951691   -3.8533741445   -0.1993935447
H       -3.3206603378    1.3547107741   -2.1856789264
25   

C        0.3499866508   -5.5242430145   -4.0281322434
C        0.7156299781   -4.7020681567   -2.8833153454
C       -0.6915301684   -4.9853380668   -4.7381248353
C       -0.1709561110   -1.2278034562   -1.7090057816
C        0.0586208840   -2.5741769656   -1.7235764376
C       -0.0622613307   -3.5717850708   -2.7735952807
C        0.1842476387   -0.7975560072   -0.3684258555
C       -2.1184999947   -0.0141094607   -2.7294786251
C        0.1622643668    0.5973243832    0.1839634923
C       -0.6276454181   -0.3233464867   -2.8341772449
N        0.5869660207   -1.8244130740    0.3348427266
N        0.5128497887   -2.9150700743   -0.4784448804
O       -2.8989669611   -0.6568443171   -3.4118715022
O       -2.4966880677    1.0093046319   -1.9242450028
S       -1.2585428709   -3.4707282767   -4.0443674109
H        0.8447475689   -6.4533074914   -4.2903570190
H        1.5234341226   -4.9541374438   -2.2065937986
H       -1.1244969151   -5.4299255635   -5.6268316247
H       -0.7720491592    0.7595399696    0.7276702260
H        0.9966046189    0.7374130262    0.8770736020
H        0.2362419834    1.3368638026   -0.6162696126
H       -0.4109470653   -0.7762416129   -3.8044644737
H       -0.0727456518    0.6172871927   -2.8000552818
H        0.7255568523   -3.8681220560   -0.1939178197
H       -3.4651592407    1.0568516295   -1.9799317188
25   

C        0.2483370585   -5.5580699793   -3.9438294472
C        0.5597996486   -4.7613142530   -2.7656147928
C       -0.5826573774   -4.8959809544   -4.8088590233
C       -0.1655702135   -1.1641785047   -1.7355226248
C        0.0805820470   -2.5119024531   -1.7486288515
C       -0.0484109165   -3.5247645405   -2.7823181867
C        0.2565599350   -0.7126326032   -0.4206926393
C       -2.1823135492   -0.0900731312   -2.8010808816
C        0.2196119583    0.6811456621    0.1344917688
C       -0.6641902270   -0.2516739579   -2.8384338310
N        0.6918597587   -1.7269031894    0.2787660161
N        0.5803054097   -2.8282187828   -0.5133892106
O       -2.8507640729   -0.6446091923   -3.6575477766
O       -2.7094583983    0.7228147223   -1.8522767683
S       -1.0115589043   -3.2936300283   -4.2235161091
H        0.6313465759   -6.5577760427   -4.1187603556
H        1.2142558922   -5.1135146305   -1.9778608870
H       -0.9409518889   -5.3005997428   -5.7484438520
H       -0.4890080533    1.3051805795   -0.4138239707
H       -0.0727721957    0.6537294466    1.1878842957
H        1.2145424019    1.1284966315    0.0636496659
H       -0.3516750711   -0.6230415999   -3.8168747245
H       -0.2111720152    0.7367049272   -2.7279365458
H        0.8162822960   -3.7734648886   -0.2229346083
H       -3.6720843707    0.7036464336   -1.9782098645
25   

C       -0.0648612469   -5.5860442664   -3.8258174634
C        0.2704506382   -4.7888433478   -2.6543592966
C       -0.6406839837   -4.8328146543   -4.8148301647
C       -0.1093276886   -1.0691089040   -1.8209780826
C        0.1480848970   -2.4163602019   -1.8128005747
C       -0.0644025025   -3.4598964839   -2.8006841530
C        0.3577095379   -0.5803295427   -0.5365142994
C       -2.2259558126   -0.2022180908   -2.9028544036
C        0.2743362426    0.8205816865   -0.0054737106
C       -0.6986639486   -0.1858312336   -2.9045403193
N        0.8473959091   -1.5685533687    0.1632241144
N        0.7210570988   -2.6890629221   -0.5991937953
O       -2.8016592130   -0.3416786216   -3.9696041454
O       -2.8701066759   -0.0368780503   -1.7201177559
S       -0.7934678379   -3.1411661547   -4.3581899463
H        0.1194976021   -6.6519431933   -3.9072174029
H        0.7346318741   -5.2142253368   -1.7734963181
H       -0.9688620365   -5.2219426936   -5.7718525890
H       -0.5742725973    1.3505962455   -0.4449384881
H        0.1537452824    0.8009598591    1.0814274414
H        1.1952839792    1.3587925413   -0.2445718087
H       -0.3208573578   -0.4825923778   -3.8851661694
H       -0.3738950553    0.8463313988   -2.7551827183
H        1.0139780385   -3.6171752842   -0.3065507921
H       -3.8199848427   -0.0928834111   -1.9117353173
