28

C      0.54623    0.92293    0.06735
C     -0.34064    1.99993    0.17816
C      1.91341    1.12247   -0.16025
C      1.53756    3.50775   -0.17771
C      0.17279    3.28957    0.05394
C      2.42685    2.42059   -0.28448
C      1.81909    4.95505   -0.27712
C      0.53405    6.80995    0.85354
C     -0.58814    4.59467    0.15820
C      0.45356    5.69192   -0.16512
C      1.31443    6.54086    4.41010
C      0.96681    7.29797    3.14212
O      2.88776    5.51519   -0.43295
O      0.38559    7.99035    0.61018
O      3.74454    2.66992   -0.50694
O      0.80283    6.31724    2.08439
H      0.17378   -0.09424    0.15913
H     -1.39880    1.83025    0.35758
H      2.58023    0.26571   -0.24260
H     -1.43376    4.62240   -0.53540
H     -0.99117    4.71213    1.16835
H      0.25628    6.16379   -1.13000
H      0.51587    5.84415    4.68266
H      2.24105    5.97390    4.28229
H      1.45188    7.24748    5.23500
H      1.75637    7.99425    2.84753
H      0.03616    7.86436    3.24062
H      4.22109    1.82534   -0.56149
