49

C      3.34244    6.00536    3.23896
C      0.99362    6.54204    3.01543
C      3.16146    4.86965    2.46376
C      0.79874    5.40189    2.23227
C      2.25916    6.85566    3.52565
C      1.88717    4.56087    1.95627
C      3.55192    2.44932   -3.51588
C      2.21981    2.80183   -3.43089
C      4.08287    2.86100   -4.78867
C      2.50804    8.05687    4.36277
C      1.19611    2.63211   -2.37612
C      1.40871   -0.66181   -0.19457
C     -0.77836    9.63924    6.35046
C      0.32363   11.92379    6.34939
C      1.30993    0.63131    0.62020
C      1.54192    9.96444    5.39796
C      0.55953    3.07643    0.62091
C      0.16714   10.59020    5.60481
C      0.74282    1.79665   -0.18221
N      3.25848    3.46671   -5.60644
O      3.59958    8.37092    4.81028
O      0.04531    3.01174   -2.53007
O      1.81048    3.42019    1.21064
O      1.38189    8.77799    4.58367
O      1.67550    2.03298   -1.28056
S      1.75142    3.59220   -4.89889
Cl     4.49165    1.63697   -2.32314
Cl     5.72682    2.58916   -5.26008
H      4.32125    6.25590    3.63569
H      0.15449    7.19474    3.23062
H      3.98801    4.20439    2.23246
H     -0.19128    5.18394    1.84868
H      2.08578   -0.53858   -1.04436
H      1.79124   -1.47901    0.42447
H      0.42921   -0.96585   -0.58140
H     -0.39547    9.42023    7.35492
H     -0.88917    8.69031    5.81828
H     -1.77188   10.08653    6.46228
H      0.76190   11.77084    7.34298
H     -0.64956   12.40564    6.48787
H      0.96809   12.62009    5.80150
H      0.65519    0.48268    1.48727
H      2.29092    0.91731    1.00917
H      2.22529   10.64920    4.88647
H      2.00085    9.68088    6.35084
H      0.20576    3.88231   -0.03059
H     -0.19638    2.89542    1.39721
H     -0.25442   10.79434    4.61186
H     -0.22766    1.53785   -0.61642
