39

C      5.97228   -0.34999   -8.43253
C      4.71281   -0.87065   -8.74690
C      6.67035   -0.86948   -7.33342
C      4.15986   -1.88923   -7.96262
C      6.11917   -1.88811   -6.55414
C      4.84601   -2.40869   -6.85345
C      5.14638   -4.89776   -6.28735
C      4.17453   -3.27031   -4.58625
C     -0.02258   -1.76569   -0.56267
C      1.39922   -1.73432    0.01752
C      0.00345   -1.77284   -2.09833
C      2.25836   -2.88184   -0.53403
C      0.86262   -2.92390   -2.63953
C      2.28892   -2.88379   -2.07061
C      3.14404   -4.04368   -2.58321
C      4.25162   -3.53173   -6.05658
O      6.16716   -4.96948   -5.56979
O      4.67362   -5.64434   -7.16730
O      4.83966   -2.49541   -3.91882
O      3.22256   -4.08256   -4.01547
H      6.40772    0.44279   -9.03820
H      4.16086   -0.48673   -9.60331
H      7.65760   -0.48141   -7.08804
H      3.18390   -2.29758   -8.21741
H      6.66578   -2.30851   -5.71815
H     -0.60310   -0.91055   -0.19270
H     -0.53541   -2.67161   -0.20802
H      1.87240   -0.77746   -0.24289
H      1.36370   -1.77963    1.11373
H     -1.01769   -1.84214   -2.49443
H      0.41455   -0.81859   -2.45614
H      3.28017   -2.80923   -0.14131
H      1.85095   -3.84063   -0.17853
H      0.39594   -3.88336   -2.36874
H      0.90280   -2.89412   -3.73285
H      2.77127   -1.95677   -2.40347
H      2.69461   -5.00243   -2.30114
H      4.15352   -3.98478   -2.16706
H      3.25352   -3.77582   -6.42069
