22   
Generated by ForceBalance from scan.xyz: Frame 1 of 24
C        5.4046626368    0.4246438993    0.6726323391
C        4.8478841349   -0.2649027412   -0.4407067338
C        5.0646073369    1.7369011303    0.8531301052
C        3.9575546487    0.3333422027   -1.2994832263
C        3.6066484740    1.7384085386   -1.1380918721
C        3.4943700741   -0.4545137131   -2.5006344438
C        1.6955924307   -1.5894821761   -3.6708080472
C        1.1182231437   -0.0068049781   -1.8646771665
N        4.2060967982    2.3444051530   -0.0153737772
N        2.1510115339   -0.5731207630   -2.7271965545
O        2.8725170679    2.4099634733   -1.8690266575
O        4.3394711513   -1.0502020918   -3.1788069698
H        6.0907152909   -0.0616259584    1.3557897388
H        5.1359318450   -1.2948002533   -0.6340556586
H        5.4468357523    2.3489319606    1.6637118713
H        2.5245251026   -1.8757178520   -4.3156077028
H        0.8788448265   -1.1921792861   -4.2829374579
H        1.3327550344   -2.4756112193   -3.1330360274
H        0.3369667106   -0.7583684377   -1.7079865233
H        0.6752876381    0.8876424312   -2.3122875329
H        1.5218820899    0.2618180414   -0.8890489572
H        3.9734255877    3.3266748248    0.0952725297
22   
Generated by ForceBalance from scan.xyz: Frame 2 of 24
C        5.4228114235    0.2027590677    0.7880981731
C        4.8938053476   -0.4064482540   -0.3838437970
C        5.1531726010    1.5254981785    1.0050543453
C        4.0920525505    0.2792137510   -1.2656961321
C        3.8091095516    1.6919256521   -1.0570944106
C        3.6649687854   -0.4540620711   -2.5179155496
C        1.9218391942   -1.8035570114   -3.5207117485
C        1.2918276068   -0.0844137382   -1.8829615231
N        4.3835278724    2.2163910559    0.1163332821
N        2.3241712978   -0.6121957324   -2.7737213730
O        3.1466349185    2.4357727003   -1.7890419350
O        4.5358058039   -1.0142181140   -3.1893467733
H        6.0384109652   -0.3521050411    1.4858836444
H        5.1372416640   -1.4423407224   -0.6044252709
H        5.5251497625    2.0819684878    1.8591824148
H        2.7601696104   -2.1509635111   -4.1218835228
H        1.0794708241   -1.5656856633   -4.1780651653
H        1.6137048141   -2.6008080574   -2.8295609185
H        1.1872955592   -0.6890925960   -0.9703072129
H        0.3374653382   -0.1051521955   -2.4160350703
H        1.5006015596    0.9518309239   -1.6260865716
H        4.1988357436    3.2051313083    0.2563393714
22   
Generated by ForceBalance from scan.xyz: Frame 3 of 24
C        5.3795390115    0.1216231100    0.7306506227
C        4.8794408697   -0.4229358747   -0.4858461827
C        5.0973768026    1.4283272582    1.0165230767
C        4.0949246587    0.3091197077   -1.3444748603
C        3.8015319592    1.7066556326   -1.0630951455
C        3.6797582771   -0.3577474967   -2.6384260597
C        1.9923848543   -1.9175655713   -3.3964454628
C        1.3117874277   -0.0389938466   -1.9871840392
N        4.3432221855    2.1660314187    0.1516807288
N        2.3381055760   -0.5944890678   -2.8703733454
O        3.1567111682    2.4868332590   -1.7725831068
O        4.5592487789   -0.8469681459   -3.3483487823
H        5.9829089023   -0.4694166233    1.4091664152
H        5.1313309262   -1.4451197907   -0.7556149552
H        5.4469996596    1.9363601444    1.9093344718
H        2.8245698851   -2.3012504300   -3.9846386367
H        1.1069094982   -1.8477059469   -4.0359172321
H        1.7743891826   -2.6100254000   -2.5702236218
H        1.2705449863   -0.5581821651   -1.0176414288
H        0.3411976765   -0.1567934359   -2.4769194189
H        1.4804226594    1.0252253449   -1.8335189761
H        4.1523743522    3.1449944804    0.3428463751
22   
Generated by ForceBalance from scan.xyz: Frame 4 of 24
C        5.3395873968    0.0524874156    0.6623647707
C        4.8539482440   -0.4238371319   -0.5889329474
C        5.0549502800    1.3413457203    1.0175937870
C        4.0839328798    0.3588307855   -1.4146813656
C        3.7901655653    1.7392256885   -1.0606246879
C        3.6606629462   -0.2376047276   -2.7407481742
C        2.0412230759   -1.9575259227   -3.2308080717
C        1.3007341214    0.0542368271   -2.0786277669
N        4.3142352823    2.1291087497    0.1851928150
N        2.3177048131   -0.5442089924   -2.9468434436
O        3.1589828722    2.5573802685   -1.7387095715
O        4.5335677292   -0.6525837646   -3.4982002943
H        5.9322788662   -0.5769868825    1.3152369473
H        5.1049177177   -1.4320005033   -0.9081750756
H        5.3924410929    1.7970505526    1.9426875773
H        2.8464435540   -2.3714592795   -3.8369167287
H        1.1022013152   -2.0478760214   -3.7851188466
H        1.9509597516   -2.5291973863   -2.2943693245
H        1.2975625255   -0.3842476437   -1.0680218574
H        0.3206244284   -0.1263546721   -2.5291616403
H        1.4505141681    1.1305117820   -2.0115238793
H        4.1209717032    3.0956687174    0.4296770817
22   
Generated by ForceBalance from scan.xyz: Frame 5 of 24
C        5.2949907829   -0.0213451216    0.6135879918
C        4.8239438816   -0.4385293027   -0.6650268696
C        5.0160729741    1.2530558293    1.0207590698
C        4.0782094125    0.3901970590   -1.4665356844
C        3.7890352962    1.7559406912   -1.0565659374
C        3.6502638562   -0.1358902088   -2.8203791260
C        2.1235365265   -1.9711737573   -3.0381891995
C        1.2951998772    0.1381151864   -2.1726291711
N        4.2951751205    2.0851336806    0.2134547086
N        2.3077602913   -0.5124121064   -3.0114953367
O        3.1764926988    2.6061733618   -1.7111123031
O        4.5129635612   -0.4566015281   -3.6260438906
H        5.8714961355   -0.6845247666    1.2472868687
H        5.0675050943   -1.4364852519   -1.0206785238
H        5.3426220682    1.6635440322    1.9705686487
H        2.9015715840   -2.4278169898   -3.6507979969
H        1.1505999124   -2.2061390612   -3.4796119732
H        2.1563372612   -2.3955168619   -2.0215848835
H        1.3276607586   -0.1990222949   -1.1234338808
H        0.3097254460   -0.1105920292   -2.5771665140
H        1.4201023871    1.2194512589   -2.2077517704
H        4.1071861766    3.0415341961    0.4986431484
22   
Generated by ForceBalance from scan.xyz: Frame 6 of 24
C        5.0062200370    0.2761219127    0.8445451556
C        3.9635280728   -0.0228573084   -0.0742480099
C        5.7530299843    1.4022954593    0.6244617272
C        3.6804371901    0.7826346799   -1.1560859750
C        4.5077998203    1.9598137400   -1.4416322443
C        2.4923510616    0.4979475876   -2.0151336814
C        2.7928622343   -1.6101943756   -3.1180367011
C        0.6476069766   -1.0355164035   -2.1770905142
N        5.5016810907    2.1902967030   -0.4553669105
N        2.1050358424   -0.8827851366   -2.0343293230
O        4.4520813769    2.7074989937   -2.4117842497
O        1.8068243883    1.3838568000   -2.4981529318
H        5.2034574761   -0.3528154559    1.7043468757
H        3.3431914285   -0.9008745761    0.0774640038
H        6.5605540757    1.7186632408    1.2776060225
H        3.8742643692   -1.4647629732   -3.0383088676
H        2.4640712236   -1.2663261332   -4.1100016152
H        2.5831570199   -2.6800448570   -3.0257899579
H        0.4046578207   -2.0961045253   -2.0605908747
H        0.2740151691   -0.6852446590   -3.1485570640
H        0.1420040235   -0.4693614884   -1.3919640827
H        6.0734312323    3.0094387379   -0.6384663065
22   
Generated by ForceBalance from scan.xyz: Frame 7 of 24
C        5.0319891313    0.2755060459    0.8385519668
C        3.9314077010   -0.0119284857   -0.0176889160
C        5.8034445184    1.3676046895    0.5491792609
C        3.6244056432    0.7753372496   -1.1026318271
C        4.4746829288    1.9109134460   -1.4647980947
C        2.3683157511    0.5304180629   -1.8829840978
C        2.8715172197   -1.5445819205   -3.0214852565
C        0.6086232585   -1.0497916621   -2.3135395974
N        5.5242515534    2.1350928631   -0.5411733685
N        2.0358203004   -0.8352617982   -2.0376092415
O        4.3869374551    2.6256660941   -2.4590064705
O        1.5983156749    1.4380904521   -2.1601963585
H        5.2518376580   -0.3363191038    1.7052177105
H        3.2925207728   -0.8645765212    0.1945688101
H        6.6536032206    1.6731046836    1.1511157277
H        3.9284488607   -1.3394891345   -2.8338489932
H        2.6307050445   -1.2347266938   -4.0485528570
H        2.7081263860   -2.6224831473   -2.9301854967
H        0.4072147193   -2.1235124542   -2.2547056033
H        0.3110445678   -0.6816077419   -3.3045804415
H        0.0091336585   -0.5302582938   -1.5645727352
H        6.1134944504    2.9281765609   -0.7757572680
22   
Generated by ForceBalance from scan.xyz: Frame 8 of 24
C        5.0556571705    0.3115306063    0.8627087169
C        3.8989009611    0.0227575321    0.0809778290
C        5.8529658916    1.3511149098    0.4718785135
C        3.5712051140    0.7616680521   -1.0280892032
C        4.4416966699    1.8371033353   -1.4966241753
C        2.2593058765    0.5421951035   -1.7297182722
C        2.9318822393   -1.4569982321   -2.9593212203
C        0.5869606730   -1.0339173893   -2.4434622772
N        5.5463331624    2.0687637277   -0.6472475755
N        1.9811778961   -0.7854472768   -2.0627605851
O        4.3180723765    2.4939444242   -2.5286644309
O        1.4281846767    1.4386525915   -1.7996878755
H        5.2979152690   -0.2605713004    1.7503042312
H        3.2429039625   -0.7924279998    0.3761293488
H        6.7458600869    1.6529626830    1.0100814739
H        3.9564182041   -1.2046709537   -2.6800337232
H        2.7699061497   -1.1570749592   -4.0039487605
H        2.8088752996   -2.5414336413   -2.8809259550
H        0.4239001304   -2.1152347554   -2.4692586293
H        0.3448422244   -0.6105603903   -3.4275831054
H       -0.0787264137   -0.5832015425   -1.7070501870
H        6.1533410234    2.8217291359   -0.9565097588
22   
Generated by ForceBalance from scan.xyz: Frame 9 of 24
C        5.0158586309    0.5762076059    1.1109179187
C        3.7775832709    0.2368357646    0.4888995764
C        5.9143973563    1.3206493856    0.3999230465
C        3.4892267118    0.6268019648   -0.7921896744
C        4.4377843373    1.4083408355   -1.5695965088
C        2.1226833450    0.3615488397   -1.3824959261
C        3.0132496748   -1.1247413131   -3.1310753843
C        0.6234071674   -1.0791796973   -2.5897752197
N        5.6241411471    1.7093889853   -0.8777930872
N        1.9870352558   -0.7851970184   -2.1395683511
O        4.2835931717    1.7912675370   -2.7342405354
O        1.1665969278    1.0451326344   -1.0234013300
H        5.2436919835    0.2667796209    2.1239554441
H        3.0407215813   -0.3362105643    1.0467900591
H        6.8750760879    1.6356025288    0.7939619728
H        4.0095574123   -0.9933853416   -2.7084566983
H        2.9310924690   -0.4939061729   -4.0237264334
H        2.8975230518   -2.1745771457   -3.4150490242
H        0.5813442265   -2.1245046135   -2.9078412307
H        0.3230561872   -0.4366842265   -3.4282914405
H       -0.0743241585   -0.9170513053   -1.7687491453
H        6.2882151912    2.2641120949   -1.4091246525
22   
Generated by ForceBalance from scan.xyz: Frame 10 of 24
C        5.0867650257    0.5776118935    1.0806402364
C        3.8282119628    0.2338228477    0.5055691070
C        5.9753047505    1.2812985350    0.3170621305
C        3.5124847130    0.5677820232   -0.7858915791
C        4.4420181026    1.3237064834   -1.6113233218
C        2.1270145211    0.2893275830   -1.3208622840
C        3.0714642197   -1.1428396534   -3.1121093790
C        0.6447054621   -1.0023369897   -2.7242258659
N        5.6537846530    1.6269257829   -0.9650427855
N        1.9904229888   -0.7495839990   -2.2090020093
O        4.2530543670    1.6932882882   -2.7751950251
O        1.1670016106    0.8949606951   -0.8420378779
H        5.3383359514    0.3034215456    2.0981986480
H        3.0951532355   -0.2998602849    1.1056624873
H        6.9511821811    1.5962875247    0.6718251325
H        4.0283996167   -1.1319456400   -2.5893740559
H        3.1394558599   -0.4719329870   -3.9752533175
H        2.8861026396   -2.1645425686   -3.4563626135
H        0.5655849862   -2.0567000214   -3.0048427192
H        0.4301449641   -0.3826685636   -3.6053188268
H       -0.0865458717   -0.7699369772   -1.9515258069
H        6.3039026804    2.1643604894   -1.5303583941
22   
Generated by ForceBalance from scan.xyz: Frame 11 of 24
C        5.1038064513    0.6081241811    1.1025089469
C        3.8385386297    0.2367573459    0.5635344464
C        5.9605422892    1.3171149595    0.3074447407
C        3.4836355229    0.5403491700   -0.7266596492
C        4.3750773285    1.3119723115   -1.5808687198
C        2.0883604750    0.2201917668   -1.2063394646
C        3.0565375335   -1.1184530870   -3.0748658065
C        0.6183051603   -0.9248586135   -2.7624610209
N        5.5986324873    1.6419995008   -0.9683834482
N        1.9540424140   -0.6857459431   -2.2235205888
O        4.1499196060    1.6821902294   -2.7377916729
O        1.1261070026    0.7067985462   -0.6052231481
H        5.3852633678    0.3518778284    2.1168944132
H        3.1258699072   -0.2954046728    1.1886918244
H        6.9396025977    1.6535980182    0.6326377817
H        3.9874675376   -1.1537336033   -2.5083153527
H        3.1932365735   -0.4472909815   -3.9291344042
H        2.8434815545   -2.1299540517   -3.4353674154
H        0.4851358367   -1.9957220667   -2.9492900617
H        0.4764474753   -0.3825614900   -3.7067073408
H       -0.1223866278   -0.5824192284   -2.0418910719
H        6.2215707509    2.1884368734   -1.5553183132
22   
Generated by ForceBalance from scan.xyz: Frame 12 of 24
C        5.1327013094    0.5649535722    1.1767161203
C        3.8745913529    0.1630048943    0.6466495261
C        5.9775093125    1.2695560550    0.3643853343
C        3.5114849813    0.4270090718   -0.6515938067
C        4.3877454502    1.2003944468   -1.5220357099
C        2.1188855051    0.0621953899   -1.1023245446
C        3.0906776681   -1.2028193051   -3.0283468830
C        0.6501904611   -0.9394951307   -2.7640322109
N        5.6082222699    1.5601672944   -0.9164168645
N        1.9838092605   -0.7042868605   -2.2240058124
O        4.1587257674    1.5563157219   -2.6820995190
O        1.1568104025    0.4298269446   -0.4182118164
H        5.4184088613    0.3364182134    2.1965071243
H        3.1667892913   -0.3620742384    1.2829366500
H        6.9516961655    1.6286177046    0.6802048408
H        4.0035542114   -1.2573285261   -2.4351014446
H        3.2764113655   -0.5625125051   -3.8965320897
H        2.8493078885   -2.2163424775   -3.3676006067
H        0.4441279636   -2.0154414084   -2.8159220058
H        0.5737945958   -0.5194829430   -3.7747009073
H       -0.0831327224   -0.4632734605   -2.1155392385
H        6.2190295636    2.1078519689   -1.5148868991
22   
Generated by ForceBalance from scan.xyz: Frame 13 of 24
C        5.1453138834    0.6573820453    1.1230848621
C        3.8916225654    0.2413886606    0.5967881090
C        5.9994076410    1.3283934782    0.2916369749
C        3.5372272304    0.4542886383   -0.7147409427
C        4.4267396037    1.1881838039   -1.6084900341
C        2.1434920451    0.0696172826   -1.1417503478
C        3.0584669023   -1.1910711100   -3.0978034651
C        0.6360175188   -0.7981092335   -2.8390886446
N        5.6416673253    1.5701370737   -1.0014180527
N        1.9842300991   -0.5699213165   -2.3358908485
O        4.2200316584    1.5000263230   -2.7845910496
O        1.1929627009    0.3528756816   -0.4015182929
H        5.4207417064    0.4667030196    2.1534181886
H        3.1726154507   -0.2529666195    1.2447733520
H        6.9719726300    1.6970398938    0.6016553838
H        3.9744738821   -1.2346815550   -2.5097608897
H        3.2637241723   -0.6375593289   -4.0191516929
H        2.7688506585   -2.2191882273   -3.3473296720
H        0.3431815029   -1.8500249063   -2.7223374714
H        0.5975642212   -0.5402747413   -3.9033739726
H       -0.0632362917   -0.1755609892   -2.2833565161
H        6.2586857176    2.0935228083   -1.6151037305
22   
Generated by ForceBalance from scan.xyz: Frame 14 of 24
C        5.1419105926    0.6146468803    1.2047782549
C        3.9120172692    0.1519679449    0.6653632569
C        5.9807983751    1.3126795196    0.3792712314
C        3.5598735082    0.3463144795   -0.6513187829
C        4.4379062015    1.1010540541   -1.5417619203
C        2.1826923025   -0.0989905325   -1.0707410863
C        3.0445405935   -1.2482293594   -3.1063825461
C        0.6403079430   -0.8246937154   -2.7832219681
N        5.6289875458    1.5344607118   -0.9175407094
N        2.0063025904   -0.5663863824   -2.3422941654
O        4.2485713012    1.3948593265   -2.7246675118
O        1.2430998191    0.0270671760   -0.2748283131
H        5.4116872339    0.4387233942    2.2392045273
H        3.2015739635   -0.3646050062    1.3052059369
H        6.9356212446    1.7184163109    0.6983244857
H        3.9887144109   -1.2481507237   -2.5645424040
H        3.2033229464   -0.7599382042   -4.0721357623
H        2.7470532811   -2.2923872338   -3.2705965834
H        0.3092480754   -1.8360198295   -2.5096637592
H        0.5982987612   -0.7214085940   -3.8717786766
H       -0.0339323480   -0.1056091610   -2.3195895881
H        6.2362112846    2.0711268364   -1.5295744819
22   
Generated by ForceBalance from scan.xyz: Frame 15 of 24
C        5.1369028319    0.6592914535    1.2425508986
C        3.9357655159    0.1469566757    0.6870884387
C        5.9643516862    1.3778834765    0.4223818158
C        3.5929536907    0.3158798803   -0.6372375946
C        4.4670167416    1.0799535975   -1.5262354068
C        2.2365770682   -0.1887171232   -1.0559614691
C        3.0103536161   -1.2568322110   -3.1488030995
C        0.6477227394   -0.7332207349   -2.7787638212
N        5.6270425505    1.5701637019   -0.8816204022
N        2.0317499186   -0.4911472186   -2.3792927342
O        4.3070586685    1.3414544503   -2.7203149145
O        1.3195272446   -0.2040729613   -0.2261443889
H        5.3945197266    0.5045018099    2.2834221076
H        3.2328623580   -0.3894204864    1.3187038504
H        6.8985330279    1.8216864566    0.7519891402
H        3.9954224384   -1.2024191362   -2.6896896476
H        3.0895561251   -0.8613313803   -4.1651251578
H        2.7048929240   -2.3118058283   -3.1923529167
H        0.3071192387   -1.7394181448   -2.4974882220
H        0.5793821017   -0.6257422085   -3.8652729058
H       -0.0048501771   -0.0052508382   -2.2975252038
H        6.2289314866    2.1135557561   -1.4930460709
22   
Generated by ForceBalance from scan.xyz: Frame 16 of 24
C        5.1273128694    0.7516704857    1.2578003615
C        3.9672590405    0.1766108658    0.6803062364
C        5.9518751531    1.4802269539    0.4426908512
C        3.6515601652    0.3005781506   -0.6574827265
C        4.5358331676    1.0560305267   -1.5459448264
C        2.3278510359   -0.2739777087   -1.0882489286
C        2.9817302576   -1.2689492477   -3.2308857760
C        0.6802473760   -0.6147979339   -2.7955769017
N        5.6489667452    1.6195951362   -0.8750846746
N        2.0874243185   -0.4153008190   -2.4431467078
O        4.4288164329    1.2577128568   -2.7567539581
O        1.4415733099   -0.4373058508   -0.2434085240
H        5.3574012833    0.6352317492    2.3100577080
H        3.2683664569   -0.3749576927    1.3029704498
H        6.8571181859    1.9703668788    0.7873434079
H        4.0067803443   -1.1912842573   -2.8723047726
H        2.9708458752   -0.9520321911   -4.2770325146
H        2.6588845664   -2.3182856536   -3.1663517042
H        0.3209571431   -1.6192797996   -2.5321383668
H        0.5776229268   -0.4706606603   -3.8749717201
H        0.0632729372    0.1152879353   -2.2714272366
H        6.2543740733    2.1586041126   -1.4869737384
22   
Generated by ForceBalance from scan.xyz: Frame 17 of 24
C        5.0582373000    0.8410131425    1.3057731935
C        3.9590732597    0.1774404513    0.7073646598
C        5.8901525564    1.5618466958    0.4902291283
C        3.6983073333    0.2185057507   -0.6489249608
C        4.6073606786    0.9437538890   -1.5385108421
C        2.4239034984   -0.4410652671   -1.1024988344
C        2.9030713404   -1.3223637127   -3.3166445446
C        0.6871644020   -0.5397170469   -2.7421013010
N        5.6514958038    1.6076893681   -0.8460164423
N        2.1234432855   -0.4093760104   -2.4670157708
O        4.5817156923    1.0431212643   -2.7658149871
O        1.5924255380   -0.7872117804   -0.2602259595
H        5.2379982083    0.7963040891    2.3732226190
H        3.2591079973   -0.3788578489    1.3242922136
H        6.7522340239    2.1153239534    0.8495498206
H        3.9621464922   -1.2672842452   -3.0672699945
H        2.7948273965   -1.0253735779   -4.3630767266
H        2.5504594800   -2.3573562944   -3.1952129649
H        0.3016903907   -1.5452201661   -2.5245291455
H        0.5286674131   -0.3171338869   -3.8013310624
H        0.1301156336    0.1769276682   -2.1371126524
H        6.2716856914    2.1257005535   -1.4613354514
22   
Generated by ForceBalance from scan.xyz: Frame 18 of 24
C        4.9594992272    0.9653286999    1.3352445370
C        3.9355531889    0.2017549544    0.7225260783
C        5.8151434523    1.6596402988    0.5208128707
C        3.7646308965    0.1342119663   -0.6470904258
C        4.7135976975    0.8141407883   -1.5297009287
C        2.5587038618   -0.6140283306   -1.1389249554
C        2.8100973810   -1.3467617093   -3.4296895050
C        0.7145707382   -0.4522277849   -2.6479629035
N        5.6728306964    1.5868193363   -0.8280652185
N        2.1768029435   -0.4070792711   -2.4856379169
O        4.7874067869    0.7846571838   -2.7581286435
O        1.8180118568   -1.1702692151   -0.3301001310
H        5.0643894536    1.0156975024    2.4123925175
H        3.2251494391   -0.3463980259    1.3346953148
H        6.6234580866    2.2824311813    0.8914457956
H        3.8922928633   -1.3398081542   -3.2990553891
H        2.5971422366   -1.0213153407   -4.4515256141
H        2.4220628250   -2.3666560616   -3.2864440216
H        0.2931080393   -1.4541354692   -2.4894544684
H        0.4853595992   -0.1242823409   -3.6662468537
H        0.2440352706    0.2338314945   -1.9409014568
H        6.3218310437    2.0721269809   -1.4403925996
22   
Generated by ForceBalance from scan.xyz: Frame 19 of 24
C        4.7375344846    1.0292363213    1.2437761391
C        3.9021082288    0.0174675613    0.7010324537
C        5.3646225067    1.8765484006    0.3707854708
C        3.6850150209   -0.1173962135   -0.6526492397
C        4.3694341903    0.7590078899   -1.5947763698
C        2.8439044992   -1.2752379555   -1.1306654497
C        2.4033392833   -1.7234284162   -3.4800689811
C        1.3488771949    0.1942005876   -2.4017231291
N        5.1768686497    1.7326220516   -0.9704678499
N        1.9670256076   -1.1213211575   -2.2112248596
O        4.3372052578    0.7183145384   -2.8289633348
O        3.0343617945   -2.3766088649   -0.6210679775
H        4.8854923209    1.1345513551    2.3118685834
H        3.4121154680   -0.6899579433    1.3652611128
H        6.0248240124    2.6791507702    0.6836215991
H        2.8866347059   -2.6806402658   -3.2761625306
H        3.1004569120   -1.0577119390   -4.0014255546
H        1.5280337143   -1.9098763914   -4.1114881793
H        0.3867788719    0.0494716094   -2.9056039445
H        1.9632223226    0.8733329824   -3.0052054277
H        1.1444777208    0.6551708528   -1.4320749373
H        5.6616000734    2.3397606247   -1.6247206600
22   
Generated by ForceBalance from scan.xyz: Frame 20 of 24
C        4.6551155267    1.0139580606    1.2478173421
C        3.8508480964   -0.0115376091    0.6791848786
C        5.2952206415    1.8725911515    0.3965748431
C        3.6782406134   -0.1386806967   -0.6788277264
C        4.3799871068    0.7467055830   -1.5995347558
C        2.8988770623   -1.3050741030   -1.2290107567
C        2.2090346754   -1.7990487250   -3.5050518188
C        1.4038839904    0.2444268986   -2.4302970413
N        5.1508390046    1.7322659420   -0.9522509211
N        1.9796396897   -1.0865906360   -2.2440507620
O        4.3790057692    0.6964176440   -2.8340213673
O        3.1815172133   -2.4382619437   -0.8404067586
H        4.7710708018    1.1186230110    2.3199461846
H        3.3546269911   -0.7287455696    1.3284244615
H        5.9340456030    2.6831622123    0.7321379435
H        2.6567502844   -2.7700587855   -3.2924066558
H        2.8784563018   -1.2120362349   -4.1464357798
H        1.2568207596   -1.9596261256   -4.0216111171
H        0.3861137017    0.1294005355   -2.8195039202
H        1.9853388678    0.8566777290   -3.1295436444
H        1.3341013983    0.7617711834   -1.4709317218
H        5.6500381857    2.3468116807   -1.5883354072
22   
Generated by ForceBalance from scan.xyz: Frame 21 of 24
C        4.6391208661    1.0101795886    1.2979567465
C        3.8745141142   -0.0174029540    0.6789534007
C        5.2685256463    1.9170206037    0.4903103305
C        3.7271928885   -0.0988309328   -0.6847276743
C        4.4159545425    0.8410360030   -1.5607793246
C        3.0034027175   -1.2719635458   -1.2928359747
C        2.0819615926   -1.8798286682   -3.4585247037
C        1.4948725253    0.2938839292   -2.4837914596
N        5.1493966427    1.8223258771   -0.8653632063
N        2.0598066820   -1.0334854063   -2.2664117605
O        4.4271424556    0.8398483657   -2.7959463572
O        3.3416948895   -2.4119023831   -0.9652749937
H        4.7350481465    1.0780147988    2.3750100995
H        3.3916518230   -0.7727827959    1.2939984337
H        5.8792832344    2.7315669744    0.8661008579
H        2.5506365056   -2.8318113866   -3.2120428150
H        2.6506605631   -1.3800224999   -4.2535746962
H        1.0624205612   -2.0685697790   -3.8119821519
H        0.4432218168    0.1829434635   -2.7714202521
H        2.0277976225    0.8420493611   -3.2686335061
H        1.5273422810    0.8740098579   -1.5597156947
H        5.6397985578    2.4745437793   -1.4699035520
22   
Generated by ForceBalance from scan.xyz: Frame 22 of 24
C        4.6029366742    0.9623372146    1.2693096014
C        3.8653833503   -0.0403262667    0.5805632141
C        5.2289538431    1.9241985828    0.5252410132
C        3.7368542158   -0.0444076660   -0.7876316348
C        4.4190465396    0.9580176275   -1.5970735165
C        3.0406218843   -1.2006367834   -1.4581051645
C        1.8846934771   -1.8833080494   -3.4874087190
C        1.5423424963    0.4017993811   -2.6368251775
N        5.1303292682    1.9065125190   -0.8350476350
N        2.0864893897   -0.9289032456   -2.4024801221
O        4.4402096455    1.0353630215   -2.8293296205
O        3.3865273576   -2.3510070541   -1.1697248560
H        4.6826218085    0.9684225702    2.3497911535
H        3.3901499869   -0.8399637422    1.1431692672
H        5.8218505591    2.7242919390    0.9566292681
H        2.3698546878   -2.8231460867   -3.2284213352
H        2.3178483682   -1.4855439021   -4.4143837335
H        0.8157672403   -2.0655296889   -3.6471308426
H        0.4710119227    0.3101261441   -2.8496007562
H        2.0385458265    0.9003179031   -3.4761092395
H        1.6537068117    1.0195307495   -1.7445800813
H        5.6153001393    2.6021723180   -1.3937497852
22   
Generated by ForceBalance from scan.xyz: Frame 23 of 24
C        4.5963981050    0.9507525617    1.3121539145
C        3.9115315059   -0.0559083226    0.5764815238
C        5.2044175725    1.9564473276    0.6124689147
C        3.8141071203   -0.0229308058   -0.7939563530
C        4.4792069423    1.0265943840   -1.5567092179
C        3.1672670058   -1.1870333996   -1.5008705773
C        1.8202864395   -1.9815298465   -3.3665414377
C        1.6588975089    0.3926580601   -2.7161341146
N        5.1356731357    1.9779729515   -0.7494423224
N        2.2190090903   -0.9236100574   -2.4466637292
O        4.5255753837    1.1431644622   -2.7849698768
O        3.5193662577   -2.3347248282   -1.2036771593
H        4.6521073195    0.9255279430    2.3938549339
H        3.4542051218   -0.8896210980    1.1031330742
H        5.7588531591    2.7628113678    1.0816964314
H        2.3758683875   -2.8868638818   -3.1277025794
H        2.0368416067   -1.6753628248   -4.3974083598
H        0.7461783534   -2.1871968371   -3.2804133248
H        0.5781401550    0.2909367838   -2.8684810984
H        2.1107904888    0.8471063828   -3.6035994778
H        1.8159220257    1.0571567952   -1.8661958887
H        5.6109356885    2.7048571569   -1.2757631054
22   
Generated by ForceBalance from scan.xyz: Frame 24 of 24
C        5.4571286260    0.4758564852    0.7074467828
C        4.8976698796   -0.2767542792   -0.3626278633
C        5.1032563401    1.7918443135    0.8220499207
C        3.9923130685    0.2649524521   -1.2430361168
C        3.6221240490    1.6719682972   -1.1492174745
C        3.5342911076   -0.5797980242   -2.4059142956
C        1.7352119232   -1.4953156317   -3.7625810976
C        1.1501932875   -0.1238581949   -1.7951983432
N        4.2293533547    2.3429894669   -0.0684824625
N        2.1947165269   -0.6829137402   -2.6428265739
O        2.8688201156    2.2967650940   -1.9018435110
O        4.3831462247   -1.1843595264   -3.0724790965
H        6.1551266465    0.0337671442    1.4082926699
H        5.1962812963   -1.3119902295   -0.5055557294
H        5.4857264412    2.4504044444    1.5952084058
H        2.5926285685   -1.7833667180   -4.3682934487
H        1.0291620672   -0.9213011735   -4.3738410334
H        1.2297179965   -2.3999038397   -3.4005965601
H        0.3641544808   -0.8758064668   -1.6611267252
H        0.7179120517    0.7785800093   -2.2383190977
H        1.5426508001    0.1291476948   -0.8107704653
H        3.9851940715    3.3267046968   -0.0059917124
