14   

C       -0.2937293240    0.8464256830   -2.0582063554
C       -0.4546071975   -0.1050800792   -0.9694483587
C       -1.0534689667    0.5188353660   -3.1513817060
C       -1.3506898695   -1.1149877132   -1.2687436784
C       -1.7304182729   -2.2922533309   -0.4666153984
C       -1.2660910447   -2.4104670785    0.9774173557
O       -2.3294401386   -3.2374974564   -0.9720184232
S       -1.9941515269   -0.9477623225   -2.9032194668
H        0.3578711087    1.7126134631   -2.0109354752
H        0.0839451701   -0.0258644858   -0.0309553783
H       -1.0793769322    1.0903860415   -4.0716734512
H       -1.7238936882   -1.6182937235    1.5755543867
H       -0.1780865391   -2.3219173107    1.0283698603
H       -1.5621412289   -3.3804819987    1.3868142868
14   

C       -0.2701114337    0.8355348045   -2.0780484487
C       -0.3905704092   -0.1379795954   -1.0036018180
C       -1.1182475956    0.5661575708   -3.1208659274
C       -1.3587959404   -1.0927946966   -1.2525436759
C       -1.6833273090   -2.3078098064   -0.4759223624
C       -1.2282353034   -2.4257287366    0.9716006394
O       -2.1351530253   -3.3085596990   -1.0232198911
S       -2.0988753399   -0.8675357606   -2.8380270369
H        0.4203708643    1.6721800412   -2.0592970304
H        0.2328454681   -0.1160431103   -0.1161134222
H       -1.1847537439    1.1606766524   -4.0244139556
H       -1.8067346831   -1.7363255271    1.5921598885
H       -0.1657975416   -2.1861142137    1.0560477505
H       -1.3888942667   -3.4458234647    1.3318307332
14   

C       -0.2132476334    0.7722381603   -2.1158737833
C       -0.3015569375   -0.2145016959   -1.0503401806
C       -1.1611294931    0.5751390477   -3.0863101269
C       -1.3545341552   -1.0924862340   -1.2209316686
C       -1.6491226625   -2.3311886240   -0.4580830067
C       -1.2217781058   -2.4418545875    0.9995378842
O       -1.9728501424   -3.3657276587   -1.0291846102
S       -2.2008116680   -0.8018806677   -2.7406865880
H        0.5283854912    1.5635736983   -2.1450636625
H        0.4096553282   -0.2590676490   -0.2327655435
H       -1.2660658653    1.1896431094   -3.9726757474
H       -1.9650658496   -1.9475908942    1.6306856067
H       -0.2485304915   -1.9734316864    1.1575341061
H       -1.1548731156   -3.4938348565    1.2909119779
14   

C       -0.1686870946    0.7474162605   -2.1555507738
C       -0.2200324475   -0.2596222585   -1.1067707268
C       -1.1914399798    0.6091472438   -3.0577345850
C       -1.3235462433   -1.0812301735   -1.2088630145
C       -1.5776250923   -2.3475233285   -0.4612913751
C       -1.2259465086   -2.4241370871    1.0185643537
O       -1.7322831720   -3.4089119416   -1.0488497906
S       -2.2578423265   -0.7338515457   -2.6628669190
H        0.6017640728    1.5081800985   -2.2241536899
H        0.5539401000   -0.3649170709   -0.3540905200
H       -1.3348751384    1.2465480668   -3.9222645591
H       -2.0972285432   -2.1268854522    1.6081561329
H       -0.3941458805   -1.7592940355    1.2589862860
H       -0.9496525671   -3.4475488862    1.2869531549
14   

C       -0.5368042394    0.8565751492   -2.0362589149
C       -1.1450669118   -0.0649323251   -1.0889284289
C       -0.2938321285    0.2659623530   -3.2492381551
C       -1.4151212492   -1.2964541590   -1.6403818861
C       -1.8168223781   -2.5434715178   -0.9060892980
C       -3.0090024084   -2.4833873201    0.0378033721
O       -1.0245455112   -3.4563687255   -0.7369375789
S       -0.8018746503   -1.4185288003   -3.2879150178
H       -0.2892637175    1.8865736152   -1.8020326533
H       -1.3304002414    0.1873588898   -0.0500081371
H        0.1618379502    0.7687582243   -4.0941177876
H       -3.9080036702   -2.7900739285   -0.5033643913
H       -3.1530098766   -1.4676089632    0.4127522466
H       -2.8559966175   -3.1589626650    0.8838081358
14   

C       -0.4009590803    0.8136791205   -2.0492685106
C       -0.9173150948   -0.0855629361   -1.0284651517
C       -0.3553816945    0.2221177153   -3.2859725744
C       -1.2879360180   -1.3051362919   -1.5376537288
C       -1.7648391147   -2.5112642233   -0.7692471844
C       -3.1569548770   -2.4833092655   -0.1593498565
O       -0.9797236160   -3.3504274001   -0.3625347335
S       -0.9338854325   -1.4403987229   -3.2569495617
H       -0.0828268338    1.8316994283   -1.8505643807
H       -0.9876484911    0.1751979170    0.0226404102
H       -0.0029556845    0.7133091955   -4.1853124183
H       -3.8789481720   -2.8462314433   -0.8955699903
H       -3.4231878091   -1.4626658050    0.1260644392
H       -3.1950790935   -3.1258190923    0.7245002006
14   

C       -0.4804868124    0.8540602881   -2.0060583634
C       -0.7440421611   -0.0978614223   -0.9381253719
C       -0.8422225926    0.3661963071   -3.2340528575
C       -1.2369854488   -1.2979385216   -1.3913625990
C       -1.7865034570   -2.4130662445   -0.5485148739
C       -3.1931199409   -2.9320117777   -0.8182887488
O       -1.0475526772   -3.1403789562    0.0954182174
S       -1.5048024419   -1.2602287258   -3.1362005542
H       -0.0512121991    1.8372517513   -1.8442199754
H       -0.5787538876    0.1189299362    0.1126332851
H       -0.7311059318    0.9098019172   -4.1649427065
H       -3.4200773927   -2.9200309462   -1.8860277550
H       -3.9138055094   -2.2981302393   -0.2949150861
H       -3.2930171396   -3.9564443067   -0.4489441961
14   

C       -0.3889253943    0.8236923271   -2.0060361767
C       -0.6382617849   -0.1261216702   -0.9330614708
C       -0.8871843840    0.3899499189   -3.2060561145
C       -1.2578311543   -1.2794122889   -1.3598061234
C       -1.8276026026   -2.3393563969   -0.4745410517
C       -3.1678482854   -2.9768982927   -0.8185390554
O       -1.1176405569   -2.9397640343    0.3196301895
S       -1.6638175282   -1.1829036311   -3.0762421203
H        0.1264197361    1.7681559586   -1.8662593007
H       -0.3763675069    0.0571161661    0.1045802777
H       -0.8118612263    0.9431394428   -4.1348843731
H       -3.2352303044   -3.1977740528   -1.8856504142
H       -3.9733977319   -2.2922206634   -0.5400926408
H       -3.2925212881   -3.9094566950   -0.2609370697
14   

C       -0.3061432894    0.8049788067   -2.0332030020
C       -0.5570472603   -0.1356684096   -0.9524829017
C       -0.9141963306    0.4254435085   -3.2012312620
C       -1.3000820959   -1.2283284570   -1.3470606837
C       -1.8651163358   -2.2571847922   -0.4338124941
C       -3.1482770540   -2.9897539656   -0.8027665996
O       -1.1824790589   -2.7286443510    0.4671185346
S       -1.8017120682   -1.0846572291   -3.0340054502
H        0.2890561704    1.7051103805   -1.9208991236
H       -0.2087108214    0.0080501191    0.0659885362
H       -0.8570935796    0.9837257416   -4.1283029849
H       -3.1171442623   -3.3260368345   -1.8414437068
H       -4.0004570115   -2.3192682871   -0.6633402877
H       -3.2785845308   -3.8625834877   -0.1567531515
14   

C       -0.2394105416    0.7731516165   -2.0691204808
C       -0.5107853899   -0.1501515131   -0.9782809578
C       -0.9346134888    0.4511667433   -3.2061323804
C       -1.3729220135   -1.1669913658   -1.3360935539
C       -1.9360842633   -2.1781790101   -0.4091852739
C       -3.1751015655   -2.9750591804   -0.7933047422
O       -1.3019172712   -2.5312447509    0.5789154469
S       -1.9353502147   -0.9818807591   -2.9987835167
H        0.4330532556    1.6204608492   -1.9857562505
H       -0.0904675936   -0.0507929637    0.0182435303
H       -0.8782355387    1.0091305455   -4.1334308058
H       -3.0748668814   -3.3738339802   -1.8054821706
H       -4.0543536825   -2.3274057499   -0.7425888227
H       -3.3111024880   -3.8098140707   -0.0998967745
14   

C       -0.1881738951    0.7449321611   -2.0950547462
C       -0.4698753351   -0.1626618289   -0.9935717124
C       -0.9688501177    0.4873526117   -3.1928616146
C       -1.4424016995   -1.0931795458   -1.3023089839
C       -1.9927736353   -2.1044403436   -0.3714735702
C       -3.2018806311   -2.9424647366   -0.7612216965
O       -1.4132207524   -2.3549658378    0.6803912698
S       -2.0692720270   -0.8625472572   -2.9352670803
H        0.5539740834    1.5348737333   -2.0472288697
H        0.0242989353   -0.1163894708   -0.0274300518
H       -0.9193597002    1.0464663746   -4.1198564196
H       -3.0332805170   -3.4193609284   -1.7299201542
H       -4.0873410264   -2.3040070046   -0.8186445586
H       -3.3737846894   -3.7197959909   -0.0113283637
14   

C       -0.1396546858    0.6899100832   -2.1090579901
C       -0.4399870213   -0.2006549647   -0.9985703237
C       -0.9902388386    0.5040108885   -3.1689911336
C       -1.5113528857   -1.0332458531   -1.2567245076
C       -2.0595452104   -2.0468075813   -0.3281696986
C       -3.2476410540   -2.9078823836   -0.7310721424
O       -1.5579644205   -2.2042578899    0.7805844471
S       -2.1839949149   -0.7535919240   -2.8632464190
H        0.6661297440    1.4162600025   -2.0948953852
H        0.1139086432   -0.2146878434   -0.0643111317
H       -0.9401342546    1.0644902546   -4.0951264844
H       -3.0065317069   -3.4744932449   -1.6341239985
H       -4.1174338521   -2.2735585767   -0.9203673293
H       -3.4889730596   -3.6094228546    0.0725155830
14   

C       -0.1055838127    0.6435967797   -2.1131081518
C       -0.4080271488   -0.2373615760   -0.9956183574
C       -1.0348426874    0.5466425233   -3.1171182389
C       -1.5708550505   -0.9584949081   -1.1821617379
C       -2.1055814874   -1.9836147615   -0.2573902270
C       -3.2853644437   -2.8556514913   -0.6622185313
O       -1.6743232407   -2.0663163370    0.8881755346
S       -2.3092869587   -0.6099221002   -2.7461323819
H        0.7588526746    1.2984618961   -2.1444116369
H        0.2122179585   -0.3272251769   -0.1084873836
H       -0.9972150315    1.1157372008   -4.0385800035
H       -2.9790067133   -3.5405398849   -1.4572294565
H       -4.1107907933   -2.2329568209   -1.0159446297
H       -3.6284606918   -3.4401099633    0.1961664305
14   

C       -0.0811183051    0.5879837817   -2.1347064784
C       -0.3999016519   -0.2788660712   -1.0108762343
C       -1.0627702415    0.5783629446   -3.0917813068
C       -1.6328272759   -0.8873203105   -1.1334554190
C       -2.1730206403   -1.9205873837   -0.2173056566
C       -3.3211204154   -2.8194675481   -0.6551651104
O       -1.8476585908   -1.9289745745    0.9647551831
S       -2.4078533713   -0.4732879896   -2.6642011431
H        0.8321822910    1.1694186842   -2.2047495046
H        0.2618294619   -0.4425598640   -0.1653495307
H       -1.0242758246    1.1526060537   -4.0100122305
H       -2.9537311622   -3.5524044943   -1.3783125813
H       -4.1186664592   -2.2275832451   -1.1102822140
H       -3.7292091386   -3.3505525168    0.2094368158
14   

C       -0.0527192790    0.5109798896   -2.1425232641
C       -0.3906852830   -0.3332301495   -1.0072601032
C       -1.0739373671    0.5867266175   -3.0532543174
C       -1.6771755629   -0.8264753962   -1.0631013315
C       -2.2433077816   -1.8538892055   -0.1488016513
C       -3.3378765672   -2.7945854156   -0.6348922788
O       -2.0537401969   -1.7811944517    1.0589874196
S       -2.4787706134   -0.3527232045   -2.5634573315
H        0.9014264948    1.0152637805   -2.2539455230
H        0.2989726027   -0.5655344227   -0.2012312014
H       -1.0313484621    1.1606793541   -3.9714947069
H       -2.9010261608   -3.5455950203   -1.2984799702
H       -4.1125607171   -2.2425790260   -1.1716073000
H       -3.7980184677   -3.3034142224    0.2168741324
14   

C       -0.0410379031    0.4259857950   -2.1625117087
C       -0.3906636079   -0.4092954432   -1.0242410757
C       -1.0983504347    0.6072222789   -3.0143898739
C       -1.7159660733   -0.7826698754   -1.0095420520
C       -2.3234443515   -1.7980050239   -0.0974803990
C       -3.3409769967   -2.7938327152   -0.6396730466
O       -2.2862138867   -1.6511708156    1.1159005964
S       -2.5495871603   -0.2183896581   -2.4610670256
H        0.9459155413    0.8488086591   -2.3183109061
H        0.3216757149   -0.7213636114   -0.2665791969
H       -1.0563189522    1.1942358562   -3.9243692805
H       -2.8166867582   -3.5794800605   -1.1902212754
H       -4.0549861059   -2.3030813046   -1.3040671197
H       -3.8917781661   -3.2528749360    0.1861768017
14   

C       -0.0366045296    0.3502592739   -2.2219080587
C       -0.3938758657   -0.4943642497   -1.0927200614
C       -1.1210524198    0.6582033203   -3.0003542320
C       -1.7418161475   -0.7495755374   -1.0120213468
C       -2.4115914334   -1.7288531260   -0.0910236035
C       -3.3084551579   -2.8128032815   -0.6752478146
O       -2.5471705920   -1.4862142054    1.0974299167
S       -2.6062667053   -0.0573749606   -2.3872213222
H        0.9735467751    0.6910565339   -2.4233663252
H        0.3304608876   -0.8928731276   -0.3892004914
H       -1.0796499272    1.2758516961   -3.8898519371
H       -2.6895439641   -3.6580187606   -0.9877711700
H       -3.8644063242   -2.4419462768   -1.5384459088
H       -4.0202875054   -3.1587157228    0.0794047397
14   

C       -0.7022389582    1.0363274641   -2.1133169130
C       -1.1464987589    0.3438660674   -0.9131341308
C       -0.7070460670    0.2190354966   -3.2149016320
C       -1.4240385114   -0.9810423145   -1.1402192483
C       -2.0007126556   -1.9753138371   -0.1647514271
C       -1.1199337720   -2.4825930211    0.9655726819
O       -3.2050976050   -2.1360297022   -0.0667222928
S       -1.2492021321   -1.4129851579   -2.8379973995
H       -0.4085968078    2.0805749222   -2.1327513609
H       -1.2597764283    0.8264648533    0.0522846676
H       -0.4139424839    0.5331985053   -4.2097264719
H       -0.4092051713   -1.7089120435    1.2661386550
H       -0.5658189282   -3.3603633362    0.6228093427
H       -1.7335474254   -2.7617656911    1.8263878699
14   

C       -0.5734694196    1.0061876481   -2.0661922211
C       -0.9474172067    0.2149028808   -0.9040266189
C       -0.7166631724    0.3064943097   -3.2362776871
C       -1.2838391138   -1.0800864315   -1.2256654796
C       -1.9347339465   -2.0913443136   -0.3261043314
C       -1.3003030083   -2.3814929644    1.0263593394
O       -3.1124617685   -2.3836764894   -0.4572348947
S       -1.2975723947   -1.3331712075   -2.9695417822
H       -0.2370281777    2.0361891908   -2.0119796459
H       -0.9887489669    0.6194703701    0.1019409624
H       -0.5026131875    0.7085036099   -4.2195538593
H       -0.7225125962   -1.5219588264    1.3734710440
H       -0.6307846722   -3.2402318417    0.9292357962
H       -2.0727405833   -2.6151323530    1.7641207786
14   

C       -0.4891582103    0.9579984211   -2.0370978943
C       -0.8243100039    0.1375057862   -0.8833355230
C       -0.7491129227    0.3184136760   -3.2213412563
C       -1.2573627321   -1.1247078004   -1.2333179558
C       -1.8960043232   -2.1382527483   -0.3434972628
C       -1.3591591873   -2.3364968893    1.0678910881
O       -3.0198234132   -2.5627668352   -0.5726440856
S       -1.3949162423   -1.3009722283   -2.9819512269
H       -0.0959688748    1.9666819125   -1.9662266599
H       -0.7705040804    0.5055051664    0.1356489649
H       -0.5832292884    0.7525096849   -4.2002737399
H       -0.9174845250   -1.4152616405    1.4525472854
H       -0.5924946262   -3.1156475814    1.0517958373
H       -2.1661023471   -2.6480169134    1.7368758303
14   

C       -0.4374030628    0.9195266463   -2.0330370621
C       -0.7374800805    0.0719919908   -0.8891600050
C       -0.7994249583    0.3373866539   -3.2201040378
C       -1.2639674749   -1.1519888433   -1.2544037807
C       -1.8611434866   -2.1918134354   -0.3796199062
C       -1.3841203285   -2.3350745044    1.0596350018
O       -2.9082092892   -2.7510237967   -0.6832084283
S       -1.5043020574   -1.2596417717   -2.9982335631
H        0.0079113852    1.9055906015   -1.9526841394
H       -0.5849296693    0.3945884615    0.1349967812
H       -0.6736105968    0.8002174932   -4.1918186356
H       -1.1847692453   -1.3580480569    1.5037880911
H       -0.4679965240   -2.9313389577    1.0771451000
H       -2.1465861964   -2.8419888295    1.6577330480
14   

C       -0.3730273254    0.8958651129   -2.0231675869
C       -0.6420081041    0.0209014014   -0.8923394750
C       -0.8703902507    0.3943215896   -3.1981363020
C       -1.3014107853   -1.1379791521   -1.2575414775
C       -1.8598170092   -2.1968289221   -0.3906537969
C       -1.3863073809   -2.3238007101    1.0501445348
O       -2.8383137072   -2.8506162734   -0.7374369261
S       -1.6731951277   -1.1568017678   -2.9818941115
H        0.1516993191    1.8420207136   -1.9422662244
H       -0.3661140950    0.2725130080    0.1261721115
H       -0.7869076094    0.8894449429   -4.1584275114
H       -1.4430551038   -1.3563505522    1.5543294148
H       -0.3531262450   -2.6807096730    1.0636571036
H       -2.0147162066   -3.0391113188    1.5882984532
14   

C       -0.3254954888    0.8676125973   -2.0462716026
C       -0.5657069667   -0.0318939899   -0.9283241354
C       -0.9061863627    0.4224741938   -3.2056425285
C       -1.3066916913   -1.1437342377   -1.2849035480
C       -1.8115499548   -2.2397516592   -0.4379145525
C       -1.3580237938   -2.3516733708    1.0100473881
O       -2.6770608332   -3.0098379120   -0.8449375615
S       -1.7596524754   -1.1014420400   -2.9897973322
H        0.2435097729    1.7880812823   -1.9683626585
H       -0.2052314107    0.1642659529    0.0759972947
H       -0.8537072453    0.9425825303   -4.1548594084
H       -1.5583060429   -1.4158498116    1.5376018055
H       -0.2865436710   -2.5655556415    1.0428996917
H       -1.8972059992   -3.1619857701    1.5088985030
14   

C       -0.3066652014    0.8648251760   -2.0602661633
C       -0.5085707788   -0.0624512893   -0.9575424371
C       -0.9773257842    0.4801067329   -3.1923873128
C       -1.3294720944   -1.1237153871   -1.2930204723
C       -1.7724029326   -2.2610624425   -0.4683687259
C       -1.3152236992   -2.3771954666    0.9778997868
O       -2.5113566758   -3.1274156332   -0.9287933249
S       -1.8766592598   -1.0158417635   -2.9673178298
H        0.3050516910    1.7583255927   -1.9927469693
H       -0.0581626306    0.0739137657    0.0200693173
H       -0.9631156460    1.0275106281   -4.1274951542
H       -1.6492945262   -1.5028104522    1.5422555805
H       -0.2247185400   -2.4400146811    1.0166583162
H       -1.7393358796   -3.2768947570    1.4327075527
