39   

C        1.2307633123   -4.6073203768   -0.3278646232
C        2.3179503130   -3.2647118288    1.3426260608
C        0.7042837408    1.1875327157    1.4244391481
C        2.0626453468   -5.6832844837    0.0048892916
C        3.1309048264   -4.3516163851    1.6874610733
C       -0.0080793739    2.3580281783    1.7022717141
C       -1.4791422859    1.8803800071   -0.1289594871
C        1.3527188441   -3.3630866716    0.3240438440
C        0.3299782784    0.3422362313    0.3689910939
C       -0.7719016146    0.7029459619   -0.4275846695
C        3.0152619758   -5.5663406438    1.0125694577
C       -1.1094817514    2.7091096982    0.9263083258
C       -0.7445119503   -2.4227168862   -0.5765444289
C        0.5248826334   -2.1890954448   -0.0558720529
C        1.1433999936   -0.8482102778    0.0905892497
C        2.4015636298   -0.6031582889   -0.4540573826
C       -1.1815026111   -0.1267441723   -1.6109492325
C       -1.7528166415   -1.4498252959   -1.1335353091
C        3.8197895605   -0.7374119331    0.0752947803
O        3.8182783393   -6.6239478744    1.3268978828
O       -1.8121278741    3.8495224395    1.1846108489
H        0.5350793408   -4.7423947773   -1.1461003897
H        2.4174416282   -2.3412181140    1.8993679314
H        1.5638881479    0.9280932708    2.0313841257
H        1.9813665854   -6.6201737415   -0.5323968503
H        3.8515694112   -4.2392840237    2.4872088292
H        0.3067260188    2.9894653927    2.5234641204
H       -2.3326845634    2.1724180064   -0.7279635480
H       -1.0808522806   -3.4502271076   -0.6199243205
H        2.3709965905    0.2470193221   -1.1270235397
H       -1.9543876876    0.4049983616   -2.1746416887
H       -0.3372046724   -0.2946160694   -2.2869550126
H       -2.2360666818   -1.9392777318   -1.9849055198
H       -2.5325545583   -1.2643592211   -0.3870602262
H        3.8383784433   -0.5658256079    1.1551479716
H        4.4744949947   -0.0034964266   -0.4041122026
H        4.2067156286   -1.7384311103   -0.1367976207
H        4.4234496787   -6.3899199940    2.0500485957
H       -1.4261186247    4.3199307071    1.9422582875
39   

C        1.2414370446   -4.5866068967   -0.2580635990
C        2.3054435928   -3.1745718158    1.3699872896
C        0.6811945612    1.1614669330    1.4292390471
C        2.0508734127   -5.6542485799    0.1481640290
C        3.0961194835   -4.2523661943    1.7878761617
C       -0.0700708412    2.2934822150    1.7593159469
C       -1.5137651013    1.8627583160   -0.1073887145
C        1.3635067152   -3.3131922606    0.3346686373
C        0.3385269566    0.3611304476    0.3298400570
C       -0.7675897086    0.7240577709   -0.4562237977
C        2.9803897509   -5.4981944070    1.1719463549
C       -1.1773611726    2.6483245309    0.9922862692
C       -0.6982101321   -2.3903320084   -0.6710418053
C        0.5567378664   -2.1513510644   -0.1170832371
C        1.1734724134   -0.7982332567   -0.0000884784
C        2.3840404732   -0.5164295812   -0.5967094204
C       -1.1327865549   -0.0667040712   -1.6807312023
C       -1.6884530304   -1.4217222998   -1.2733503319
C        3.8073797990   -0.8948493298   -0.2367578486
O        3.7608599943   -6.5486320388    1.5587131860
O       -1.9181067084    3.7507520494    1.3036013631
H        0.5630522876   -4.7552207127   -1.0844857246
H        2.4034367047   -2.2250089731    1.8816313251
H        1.5435854137    0.8960489501    2.0297398213
H        1.9694549768   -6.6161104166   -0.3430662977
H        3.7991968595   -4.1087205734    2.5982020115
H        0.2183513568    2.8915517682    2.6145459551
H       -2.3718464875    2.1564968359   -0.6989192670
H       -1.0444510717   -3.4150649861   -0.6930102416
H        2.3819831682    0.4407865664   -1.1072462461
H       -1.8994594256    0.4727767344   -2.2455261734
H       -0.2668777504   -0.1917492477   -2.3383575854
H       -2.1075168721   -1.8992721278   -2.1644896006
H       -2.5167226252   -1.2753315287   -0.5718814524
H        3.9598235575   -0.8201321745    0.8433140538
H        4.5133244305   -0.2212025518   -0.7315580016
H        4.0179433635   -1.9181059936   -0.5618971652
H        4.3485576437   -6.2874074185    2.2869322958
H       -1.5562488795    4.1891769432    2.0918095169
39   

C        1.2306519863   -4.5514824939   -0.1989768174
C        2.3243110323   -3.0602094901    1.3365104739
C        0.6550359076    1.1197469452    1.4604668034
C        2.0116708954   -5.6090093648    0.2826126427
C        3.0879719402   -4.1262176635    1.8278514716
C       -0.1378998245    2.2000069744    1.8597846106
C       -1.5519811790    1.8513176501   -0.0487503596
C        1.3799000342   -3.2444277279    0.3094413808
C        0.3464894324    0.3888503485    0.3049070199
C       -0.7646479071    0.7644860709   -0.4647625368
C        2.9417853015   -5.4075611082    1.2977548187
C       -1.2510332930    2.5695702037    1.1069048461
C       -0.6420252047   -2.3319181116   -0.8035212168
C        0.5959214759   -2.0944772689   -0.2103866197
C        1.2018670247   -0.7290488780   -0.0973474485
C        2.3714002128   -0.4007209502   -0.7233489750
C       -1.0836631341    0.0375319810   -1.7418271082
C       -1.6124965248   -1.3569485326   -1.4345987397
C        3.7595811086   -0.9863811654   -0.5909691412
O        3.6933107997   -6.4488657136    1.7592645574
O       -2.0323963756    3.6209547991    1.4877281949
H        0.5503917347   -4.7630629817   -1.0134868168
H        2.4483878082   -2.0818110520    1.7845539965
H        1.5195342023    0.8394046005    2.0510766089
H        1.9060226027   -6.6000720935   -0.1414437708
H        3.7936681606   -3.9451903953    2.6284097754
H        0.1217554730    2.7456233517    2.7582705527
H       -2.4147336336    2.1549443905   -0.6282597448
H       -1.0018583756   -3.3515214891   -0.8206979697
H        2.4066930305    0.6219252570   -1.0837185888
H       -1.8477826505    0.5917474557   -2.2956718034
H       -0.1981095011   -0.0263616023   -2.3817757589
H       -1.9594031845   -1.8024167162   -2.3721049378
H       -2.4885941562   -1.2671537807   -0.7836477985
H        4.0702958340   -0.9991826627    0.4571697493
H        4.4768513159   -0.3826153223   -1.1548129800
H        3.7779528984   -2.0065723845   -0.9862562166
H        4.2822265939   -6.1545250420    2.4737693592
H       -1.6966529948    4.0095079315    2.3128463678
39   

C        1.2415165729   -4.5475048559   -0.1427015358
C        2.3468538770   -3.0066327365    1.3345296971
C        0.6604530623    1.0765246588    1.4681710720
C        1.9979052585   -5.5952776673    0.3963916814
C        3.0870375197   -4.0617770957    1.8816047457
C       -0.1602580339    2.1210713651    1.9047444707
C       -1.5566365803    1.8148082248   -0.0255325548
C        1.4081594719   -3.2209250511    0.3071532846
C        0.3734396839    0.3858336588    0.2830169253
C       -0.7418541783    0.7634053133   -0.4775987110
C        2.9218264684   -5.3635375667    1.4106884671
C       -1.2785169361    2.4934689757    1.1600755138
C       -0.5789709631   -2.3203472709   -0.8869710849
C        0.6453156932   -2.0810111907   -0.2662788395
C        1.2393202888   -0.7078861955   -0.1560251608
C        2.4100669962   -0.3605077898   -0.7494383112
C       -1.0306116129    0.0738791350   -1.7832111971
C       -1.5367717375   -1.3430157997   -1.5377946681
C        3.7218185669   -1.1062034279   -0.8010323597
O        3.6491320469   -6.3954765191    1.9285584496
O       -2.0875495425    3.5087860967    1.5790717004
H        0.5647222635   -4.7873344746   -0.9519966111
H        2.4879452394   -2.0111964945    1.7380623779
H        1.5264881436    0.7907765453    2.0539208415
H        1.8768993395   -6.6033614198    0.0190927304
H        3.7894842578   -3.8558452272    2.6790451523
H        0.0808329226    2.6356775963    2.8264406415
H       -2.4233183129    2.1199463302   -0.5982530320
H       -0.9465749949   -3.3369071260   -0.9004108074
H        2.5089542728    0.6925885780   -0.9902436952
H       -1.7946863709    0.6337965051   -2.3313175507
H       -0.1334576287    0.0493267729   -2.4095918152
H       -1.8352675427   -1.7679671747   -2.5011011315
H       -2.4412543392   -1.2889324908   -0.9227946326
H        4.1436926009   -1.2083852206    0.2024416319
H        4.4382260161   -0.5579728442   -1.4200006054
H        3.5779526248   -2.0996073561   -1.2368206471
H        4.2357880905   -6.0786461896    2.6352953048
H       -1.7693604259    3.8665542827    2.4248461210
39   

C        1.2434409748   -4.4908362153   -0.1573917307
C        2.3446231925   -2.9284802531    1.3003670615
C        0.6248865506    1.0999027322    1.4589617451
C        1.9912135198   -5.5318832071    0.4062578648
C        3.0769721167   -3.9765819756    1.8708485952
C       -0.2141576964    2.1203444840    1.9171364092
C       -1.6029062331    1.8334213158   -0.0224216320
C        1.4115078896   -3.1569176119    0.2702937969
C        0.3503139699    0.4316145781    0.2580816692
C       -0.7696599350    0.8062124819   -0.4957632391
C        2.9090250709   -5.2858724305    1.4226725894
C       -1.3378244948    2.4900324960    1.1788679192
C       -0.5614142503   -2.2688003193   -0.9613794211
C        0.6538854183   -2.0235532367   -0.3253322463
C        1.2261581487   -0.6428978940   -0.2049514004
C        2.4193218151   -0.2848782522   -0.7334402375
C       -1.0392525690    0.1403531239   -1.8182456193
C       -1.5211329234   -1.2924160743   -1.6130404193
C        3.6457043825   -1.1283670117   -0.9632045040
O        3.6279897868   -6.3113712260    1.9644140747
O       -2.1646701038    3.4815456853    1.6195450025
H        0.5709639443   -4.7440199162   -0.9660708426
H        2.4900218983   -1.9266435823    1.6862833858
H        1.4938216265    0.8145485023    2.0406092294
H        1.8677413938   -6.5462796851    0.0470846508
H        3.7756904083   -3.7589987472    2.6684974097
H        0.0165162716    2.6178622299    2.8508292436
H       -2.4734929925    2.1365588695   -0.5901977372
H       -0.9252190528   -3.2864379448   -0.9810596111
H        2.5766776788    0.7805327301   -0.8628880269
H       -1.8084443773    0.6998140390   -2.3595882265
H       -0.1370522355    0.1468354834   -2.4378740468
H       -1.7932314764   -1.7014864266   -2.5909125016
H       -2.4384251151   -1.2676327288   -1.0154315891
H        4.1522047246   -1.3345716769   -0.0164243180
H        4.3442979130   -0.5967304038   -1.6160582437
H        3.3778266681   -2.0734638550   -1.4452892314
H        4.2108828283   -5.9842774849    2.6696037807
H       -1.8545011594    3.8242598425    2.4745014873
39   

C        1.2507091536   -4.4801220066   -0.1452364632
C        2.3429454682   -2.9075337104    1.3082742530
C        0.6149864070    1.1034043144    1.4511355090
C        1.9924062239   -5.5176323189    0.4326840408
C        3.0695459223   -3.9520480539    1.8925545704
C       -0.2335871477    2.1138026659    1.9139334155
C       -1.6170605506    1.8261969124   -0.0296135387
C        1.4172897969   -3.1428464487    0.2726825683
C        0.3475379060    0.4398655824    0.2456986445
C       -0.7745344793    0.8085614392   -0.5070793390
C        2.9029495265   -5.2646910426    1.4538564516
C       -1.3593364845    2.4780777881    1.1759998290
C       -0.5470292081   -2.2640489062   -0.9798199297
C        0.6644920463   -2.0135086264   -0.3384912802
C        1.2265625299   -0.6297051992   -0.2222089154
C        2.4560990557   -0.2834620634   -0.6591222756
C       -1.0345987170    0.1465261841   -1.8335454462
C       -1.5066583736   -1.2913453420   -1.6381047523
C        3.6017059608   -1.1815321602   -1.0401860412
O        3.6164401483   -6.2867713148    2.0091158580
O       -2.1955937908    3.4594254306    1.6216343043
H        0.5840310662   -4.7393347410   -0.9567825647
H        2.4883672899   -1.9027815482    1.6865087375
H        1.4842088345    0.8209632495    2.0337910356
H        1.8698554860   -6.5347833173    0.0810436933
H        3.7630215697   -3.7289043678    2.6932408056
H       -0.0091211590    2.6072146352    2.8513262517
H       -2.4892746216    2.1250180956   -0.5971442727
H       -0.9100969717   -3.2819850519   -0.9956482110
H        2.6703412487    0.7793326431   -0.6911127335
H       -1.8050615161    0.7032456289   -2.3758802604
H       -0.1295031987    0.1625371545   -2.4488614721
H       -1.7668418357   -1.6987009640   -2.6199122774
H       -2.4296361563   -1.2753667892   -1.0490194584
H        4.1543181915   -1.4979805947   -0.1514008003
H        4.2911776315   -0.6422354343   -1.6964293905
H        3.2407598855   -2.0642413562   -1.5767769277
H        4.1952696546   -5.9546602953    2.7153080888
H       -1.8906830162    3.7982389160    2.4800362734
39   

C        1.2867958545   -4.4489336726   -0.1441690732
C        2.3654178549   -2.8760000835    1.3190214425
C        0.6300922409    1.1397268512    1.4377601781
C        2.0279210470   -5.4854602987    0.4360380205
C        3.0914856867   -3.9197348671    1.9055420101
C       -0.2235685463    2.1470263831    1.8977050253
C       -1.6060891656    1.8459430777   -0.0443729337
C        1.4467145564   -3.1118353905    0.2770750041
C        0.3661177828    0.4709289238    0.2338164510
C       -0.7585011652    0.8310529073   -0.5188273187
C        2.9314711472   -5.2319745978    1.4631555381
C       -1.3513417195    2.5031000437    1.1590232300
C       -0.5190408843   -2.2421315544   -0.9773148441
C        0.6925557208   -1.9848725729   -0.3385699529
C        1.2474666777   -0.5987596955   -0.2312019240
C        2.5156016120   -0.2750916368   -0.5591040231
C       -1.0154398598    0.1627518430   -1.8425895194
C       -1.4818754665   -1.2761093304   -1.6409429623
C        3.6001785020   -1.1780802486   -1.0773583548
O        3.6445644753   -6.2531834818    2.0205289330
O       -2.1926704386    3.4812375577    1.6021515946
H        0.6260779598   -4.7082552198   -0.9605997572
H        2.5056156923   -1.8719344191    1.7007924440
H        1.4996557948    0.8630944944    2.0227084038
H        1.9104759987   -6.5021994426    0.0814630809
H        3.7793824978   -3.6962985095    2.7109372223
H       -0.0017237196    2.6440567902    2.8338233851
H       -2.4801477415    2.1382121875   -0.6124493993
H       -0.8799857846   -3.2609692535   -0.9857445949
H        2.7739905061    0.7763699138   -0.4962044427
H       -1.7876775464    0.7143080114   -2.3876453294
H       -0.1098914343    0.1796074010   -2.4572836086
H       -1.7395946854   -1.6889499770   -2.6210974789
H       -2.4054362670   -1.2610833838   -1.0527371063
H        4.1812100414   -1.5952501202   -0.2503278839
H        4.2791250888   -0.6088835751   -1.7191494623
H        3.1766503285   -1.9950585557   -1.6695234430
H        4.2182308392   -5.9209353869    2.7308480331
H       -1.8893087470    3.8240359392    2.4595260962
39   

C        1.2648686723   -4.4553609096   -0.1510834371
C        2.3398221074   -2.8917389734    1.3244471228
C        0.6011435366    1.1433239740    1.4199427769
C        2.0081639786   -5.4949103626    0.4206606232
C        3.0679500892   -3.9387540001    1.9027036034
C       -0.2531318159    2.1531797415    1.8729073388
C       -1.6335173136    1.8397594061   -0.0682373544
C        1.4216584399   -3.1210129153    0.2801972515
C        0.3397749976    0.4671795156    0.2185931675
C       -0.7857173083    0.8216066135   -0.5353859118
C        2.9110440557   -5.2477360071    1.4497369641
C       -1.3797996777    2.5049016729    1.1308246342
C       -0.5522284240   -2.2537630979   -0.9601853698
C        0.6636874697   -1.9930439336   -0.3307286081
C        1.2206781028   -0.6073755438   -0.2402504962
C        2.5205051619   -0.3147035992   -0.4566651193
C       -1.0457088384    0.1410525004   -1.8518212447
C       -1.5159343720   -1.2935348589   -1.6308103665
C        3.5623845272   -1.1811952861   -1.1071506230
O        3.6262497052   -6.2718927453    1.9989417099
O       -2.2217393389    3.4855773654    1.5671406044
H        0.6052528182   -4.7092254694   -0.9702061541
H        2.4767393769   -1.8914692770    1.7167429621
H        1.4684097928    0.8701568375    2.0098934854
H        1.8930794133   -6.5089425644    0.0576604168
H        3.7547719390   -3.7204704427    2.7104117763
H       -0.0328337502    2.6552928484    2.8066850078
H       -2.5077027252    2.1275922218   -0.6383654943
H       -0.9145399996   -3.2722527518   -0.9567363048
H        2.8118193348    0.7179882985   -0.2992890738
H       -1.8175198159    0.6885659261   -2.4015210258
H       -0.1410014648    0.1481723424   -2.4679784810
H       -1.7790065830   -1.7174904723   -2.6047689934
H       -2.4368732454   -1.2688102308   -1.0388027109
H        4.1632045875   -1.6922421171   -0.3496817197
H        4.2289431267   -0.5646522051   -1.7173950540
H        3.0957251045   -1.9277893174   -1.7571404593
H        4.1991796373   -5.9441716141    2.7119416233
H       -1.9192705580    3.8337133887    2.4226784019
39   

C        1.2469431113   -4.4732734251   -0.1640800762
C        2.3196630281   -2.9293547553    1.3331042193
C        0.5825693307    1.1409788794    1.3942839015
C        1.9924053158   -5.5197688664    0.3916828700
C        3.0500299792   -3.9835713416    1.8954633943
C       -0.2696784878    2.1587166474    1.8327506674
C       -1.6410366985    1.8312571062   -0.1115574495
C        1.4016030390   -3.1445321551    0.2853577793
C        0.3271849672    0.4543177876    0.1962652677
C       -0.7955176895    0.8044740663   -0.5640588152
C        2.8957124204   -5.2860054041    1.4232834476
C       -1.3902714417    2.5082623647    1.0812011272
C       -0.5809446786   -2.2740678552   -0.9343164647
C        0.6408792531   -2.0122171541   -0.3162680211
C        1.2073580351   -0.6293784800   -0.2493445511
C        2.5313541953   -0.3726870207   -0.3491022739
C       -1.0597279004    0.1052094450   -1.8689863269
C       -1.5417556695   -1.3200102860   -1.6173752102
C        3.5565162665   -1.1625556930   -1.1145980325
O        3.6134862887   -6.3167296331    1.9566216763
O       -2.2301960428    3.4968362957    1.5033341171
H        0.5880068653   -4.7158403963   -0.9873002002
H        2.4529415237   -1.9363875916    1.7441072417
H        1.4431049103    0.8703230867    1.9950939349
H        1.8790733578   -6.5284726918    0.0135958354
H        3.7362285228   -3.7761055881    2.7065309426
H       -0.0526641575    2.6683695556    2.7632197308
H       -2.5123574293    2.1155154904   -0.6878140833
H       -0.9475563225   -3.2910080890   -0.9149249512
H        2.8426046581    0.6344383236   -0.0950469512
H       -1.8278402808    0.6486359848   -2.4278302009
H       -0.1551764015    0.0932022044   -2.4852931385
H       -1.8136648366   -1.7608313317   -2.5813557832
H       -2.4591017028   -1.2761614941   -1.0208544021
H        4.1713454979   -1.7530317730   -0.4293544985
H        4.2092664467   -0.4849871439   -1.6727927116
H        3.0705617068   -1.8381178088   -1.8253961207
H        4.1876272578   -5.9981618946    2.6727729299
H       -1.9300009997    3.8529594508    2.3563890301
39   

C        1.2328223319   -4.4941265821   -0.1466942178
C        2.3004986623   -2.9773206341    1.3808370905
C        0.5750316031    1.1352129023    1.3882655987
C        1.9783734145   -5.5501027961    0.3904409182
C        3.0309244276   -4.0412915006    1.9247061902
C       -0.2764495509    2.1624762301    1.8049135259
C       -1.6231281829    1.8233874971   -0.1532540368
C        1.3858340557   -3.1731454081    0.3259752191
C        0.3353305235    0.4385907493    0.1909970200
C       -0.7787118202    0.7860805213   -0.5837374346
C        2.8800006852   -5.3346284683    1.4272480609
C       -1.3835670911    2.5121425777    1.0346639997
C       -0.5981905502   -2.2933901949   -0.8787080551
C        0.6284346029   -2.0337317552   -0.2685954759
C        1.2152580444   -0.6581268831   -0.2331263238
C        2.5530117694   -0.4385905814   -0.2165196383
C       -1.0428157840    0.0643765178   -1.8752627940
C       -1.5467926466   -1.3457580493   -1.5867550242
C        3.5873489972   -1.1159534348   -1.0760158063
O        3.5993500154   -6.3740593159    1.9412245345
O       -2.2230596182    3.5097583541    1.4358583465
H        0.5767919914   -4.7209961336   -0.9768694252
H        2.4295801147   -1.9939923250    1.8150665717
H        1.4214758694    0.8655250989    2.0090357262
H        1.8673994029   -6.5514326818   -0.0074190999
H        3.7145143805   -3.8486043284    2.7415825259
H       -0.0697240507    2.6788267767    2.7340497203
H       -2.4870257524    2.1046778194   -0.7419915035
H       -0.9740514633   -3.3065808207   -0.8382919352
H        2.8710740024    0.5352511433    0.1377323450
H       -1.8007403401    0.6048249916   -2.4506458511
H       -0.1349462059    0.0242987031   -2.4854278415
H       -1.8241484665   -1.8082915092   -2.5389222517
H       -2.4637442409   -1.2734681986   -0.9923148089
H        4.2066435392   -1.7812276041   -0.4674673528
H        4.2317588523   -0.3688217312   -1.5484784589
H        3.1045826970   -1.7066285276   -1.8607438911
H        4.1759338441   -6.0673494709    2.6605648461
H       -1.9322843555    3.8722273252    2.2895168379
39   

C        1.1950860010   -4.5107842360   -0.1146963657
C        2.2625136201   -3.0192371035    1.4370925029
C        0.5598722617    1.1496625849    1.3527963138
C        1.9416446218   -5.5752873747    0.4035596313
C        2.9940352063   -4.0920003997    1.9622536540
C       -0.2840681217    2.1972379563    1.7316232479
C       -1.6002682343    1.8327955791   -0.2408527419
C        1.3491972309   -3.1970042152    0.3775789602
C        0.3369998600    0.4311749462    0.1630500250
C       -0.7637067902    0.7739397873   -0.6333316025
C        2.8449576846   -5.3765604147    1.4420313761
C       -1.3709347489    2.5461203520    0.9339984875
C       -0.6354782120   -2.3082537835   -0.8120694813
C        0.5981732881   -2.0510091620   -0.2145758759
C        1.2123121637   -0.6873709240   -0.2253971645
C        2.5565712203   -0.5052566544   -0.1067887229
C       -1.0327591055    0.0139156608   -1.9003233273
C       -1.5682493441   -1.3709656392   -1.5535708031
C        3.6218125278   -1.0369009739   -1.0329322893
O        3.5680504811   -6.4234317401    1.9352563543
O       -2.2030696221    3.5637695601    1.2985100105
H        0.5398088892   -4.7227137556   -0.9496263812
H        2.3894710092   -2.0447710689    1.8910298135
H        1.3853920734    0.8831692499    2.0021374337
H        1.8316989558   -6.5694827628   -0.0120759147
H        3.6776449398   -3.9130152486    2.7822004274
H       -0.0876474833    2.7294250686    2.6540644898
H       -2.4526930421    2.1096785740   -0.8480805264
H       -1.0238305921   -3.3153754050   -0.7415091681
H        2.8702376900    0.4265979978    0.3480788190
H       -1.7774139337    0.5470986625   -2.4993052796
H       -0.1228475248   -0.0692495519   -2.5029776078
H       -1.8591120752   -1.8657616733   -2.4852377235
H       -2.4810953322   -1.2549842393   -0.9596028004
H        4.2443819094   -1.7670541580   -0.5077596177
H        4.2563972007   -0.2200921489   -1.3890217612
H        3.1628542771   -1.5268525354   -1.8971585890
H        4.1527588395   -6.1266332377    2.6521687949
H       -1.9211882050    3.9417622362    2.1484366206
39   

C        1.1581116563   -4.5244978034   -0.0989958063
C        2.2358475196   -3.0532312940    1.4646106981
C        0.5523240263    1.1533822023    1.3133844726
C        1.9050200106   -5.5965401715    0.4025362432
C        2.9678849097   -4.1337931640    1.9732592689
C       -0.2838722253    2.2166920142    1.6636544798
C       -1.5759480078    1.8370181395   -0.3198107646
C        1.3187092795   -3.2161897273    0.4058709761
C        0.3433836344    0.4202509561    0.1277431778
C       -0.7474379615    0.7615232153   -0.6838442828
C        2.8148456601   -5.4116100864    1.4376663912
C       -1.3533379250    2.5675611295    0.8450841794
C       -0.6673879774   -2.3173288526   -0.7672485890
C        0.5744903895   -2.0642095352   -0.1846221240
C        1.2136119653   -0.7142019865   -0.2399069068
C        2.5614861687   -0.5563703900   -0.0514792858
C       -1.0248997745   -0.0274264835   -1.9301343943
C       -1.5867849949   -1.3889468193   -1.5359410484
C        3.6721392449   -0.8851878383   -1.0220480445
O        3.5408702871   -6.4650499779    1.9122660867
O       -2.1775788495    3.6009427411    1.1822213605
H        0.4993540174   -4.7242249505   -0.9343911884
H        2.3660519032   -2.0853387519    1.9310866340
H        1.3568278641    0.8898764046    1.9889290915
H        1.7916287059   -6.5852041622   -0.0252077364
H        3.6558770529   -3.9661715706    2.7919168606
H       -0.0953672173    2.7590598610    2.5818413894
H       -2.4192975746    2.1116790206   -0.9405287558
H       -1.0684737820   -3.3172563402   -0.6678054954
H        2.8720325178    0.2667888110    0.5785061322
H       -1.7595402017    0.5002924961   -2.5460555944
H       -0.1155639364   -0.1463186846   -2.5275627186
H       -1.8903273229   -1.9092020522   -2.4494779790
H       -2.4950332903   -1.2362032910   -0.9431165362
H        4.5724912026   -0.3113378955   -0.7837853804
H        3.3603044854   -0.6448585109   -2.0427355414
H        3.9090069176   -1.9520202933   -0.9698542996
H        4.1378013584   -6.1759417032    2.6221861135
H       -1.9011289126    3.9901633574    2.0288845987
39   

C        1.1030230185   -4.5608006440   -0.0371774714
C        2.2271047850   -3.0719786125    1.4759677118
C        0.5830390594    1.1272152647    1.2545005474
C        1.8334680391   -5.6346756274    0.4841441212
C        2.9428139143   -4.1539725180    2.0047613187
C       -0.2490065622    2.1964731798    1.5954057131
C       -1.5335154263    1.8136331912   -0.3910399126
C        1.2952239576   -3.2431005301    0.4315689407
C        0.3784521224    0.3885579484    0.0697846504
C       -0.7099518476    0.7307827328   -0.7450306474
C        2.7583076101   -5.4417951951    1.5042300061
C       -1.3119759049    2.5495329704    0.7704033019
C       -0.6803812739   -2.3379584693   -0.7548879198
C        0.5689595267   -2.0927535384   -0.1840229951
C        1.2388453049   -0.7599312932   -0.2887327245
C        2.5933197107   -0.6050998287   -0.0853803012
C       -0.9966758381   -0.0733949851   -1.9785817121
C       -1.5805063714   -1.4171559049   -1.5555615732
C        3.7405458128   -0.6805706979   -1.0726426627
O        3.4684192276   -6.4972717887    1.9980451680
O       -2.1330479452    3.5877128760    1.1004037165
H        0.4320075542   -4.7690697109   -0.8606299302
H        2.3815579312   -2.0964844765    1.9177726351
H        1.3757833698    0.8658238174    1.9437474254
H        1.6955688619   -6.6314114026    0.0831625182
H        3.6430000408   -3.9796549480    2.8115814229
H       -0.0630799753    2.7406979091    2.5130725683
H       -2.3745771711    2.0875378994   -1.0151181999
H       -1.1035020767   -3.3244840941   -0.6193624121
H        2.8776486119    0.0951753209    0.6872823037
H       -1.7220438145    0.4541227301   -2.6055419656
H       -0.0880987924   -0.2183333788   -2.5713278399
H       -1.8847026131   -1.9559596596   -2.4580249124
H       -2.4908211190   -1.2370094694   -0.9736377028
H        4.5895104778   -0.0853393164   -0.7232957635
H        3.4198267742   -0.3000570182   -2.0469560735
H        4.0612270961   -1.7200309265   -1.1895518674
H        4.0822005485   -6.2015973902    2.6906535324
H       -1.8611839262    3.9755757115    1.9492235798
