27   

C        2.4506034198    1.0384649463   -0.4425034252
C        1.4320957624    0.2124106287   -0.9017917588
C        0.6507312400   -4.0845513800   -1.5569540354
C        2.2678933045    1.7788120319    0.7258739282
C        1.5952384577   -2.6943461989   -0.0816760992
C        0.4730904664   -2.8253622324   -0.8622485340
C        0.2555180914    0.1343123561   -0.1500255585
C        0.1293927260    0.9621620683    1.0040300107
C        1.8483674395   -4.5990543432   -1.1526080296
C       -0.7348448637   -1.9778032921   -1.0471709078
C       -2.1387472242   -0.1132818641   -0.2078573460
C       -2.1305702409    0.1539024125    1.3009654157
N        1.1316003648    1.7460465442    1.4294928542
N       -0.8344871663   -0.6708016443   -0.5504579660
O       -1.7234988655   -2.4605738505   -1.6018475186
O        2.4461150882   -3.7577289220   -0.2524481839
O       -1.0487698128    1.0080585294    1.7253855935
Br       2.5893045132   -6.2552225300   -1.7434979645
H        3.3854260905    1.1230688048   -0.9832663895
H        1.5511326867   -0.3481397589   -1.8238839430
H       -0.0421485208   -4.5381156483   -2.2590635671
H        3.0734029973    2.4149415318    1.0743096558
H        1.7960307140   -1.8831595572    0.6078561302
H       -2.9616245970   -0.7932080772   -0.4506785839
H       -2.3021652774    0.8194579865   -0.7575510714
H       -3.0821414692    0.6132966473    1.5856976634
H       -2.0541316138   -0.8002592498    1.8323892633
27   

C        2.4625109802    0.9273260134   -0.4423121092
C        1.4287394477    0.1123502446   -0.8860175138
C        0.7506985618   -3.9726402078   -1.7137694003
C        2.2842801779    1.7138429336    0.6955838307
C        1.4512520578   -2.7821613440    0.0481165459
C        0.4406688394   -2.8329804391   -0.8773501237
C        0.2380111350    0.0936204892   -0.1516443386
C        0.1224102721    0.9610229239    0.9746811817
C        1.9178335545   -4.5020440500   -1.2427279234
C       -0.7867114330   -2.0086418702   -1.0270931651
C       -2.1654740580   -0.1158564769   -0.2029373255
C       -2.1474793452    0.1956375518    1.2966337855
N        1.1392505245    1.7340505517    1.3851990789
N       -0.8695616415   -0.6974615957   -0.5386473304
O       -1.7945065342   -2.5112702930   -1.5253022508
O        2.3689561585   -3.7796018994   -0.1689781861
O       -1.0580929699    1.0552691857    1.6870192026
Br       2.7963239718   -6.0365728771   -1.9599045554
H        3.4059906314    0.9676724455   -0.9730578317
H        1.5487038714   -0.4814897765   -1.7867552421
H        0.1601973686   -4.3455543795   -2.5447766238
H        3.1015043276    2.3418439763    1.0312399796
H        1.5209821824   -2.0669342930    0.8600138403
H       -2.9972562253   -0.7934247625   -0.4205099375
H       -2.3226848842    0.8021720910   -0.7785405488
H       -3.0941692412    0.6700301723    1.5728324162
H       -2.0739322959   -0.7425331722    1.8562085436
27   

C        2.4470487437    0.8783039935   -0.4665299580
C        1.4035490666    0.0672250535   -0.8934937812
C        0.8633981169   -3.7965701803   -1.8654588646
C        2.2774959059    1.6924602766    0.6524982451
C        1.3265356065   -2.8657767764    0.1195690725
C        0.4210063895   -2.8098804713   -0.9054660756
C        0.2096361503    0.0805588849   -0.1628806323
C        0.1064489007    0.9720778688    0.9462569832
C        2.0054580512   -4.3485381108   -1.3587301694
C       -0.8359345832   -2.0217124363   -1.0067229410
C       -2.1996249831   -0.1118430457   -0.1917411629
C       -2.1645187781    0.2276839585    1.3008589253
N        1.1323311757    1.7419502827    1.3401622958
N       -0.9099797265   -0.7043945793   -0.5338871487
O       -1.8608175294   -2.5567581415   -1.4279679523
O        2.3132197311   -3.7818623690   -0.1484937227
O       -1.0702227601    1.0935533314    1.6605460258
Br       3.0254074700   -5.7252228098   -2.1984641718
H        3.3915544056    0.8940001392   -0.9967087861
H        1.5207969199   -0.5451533626   -1.7817574584
H        0.3735053632   -4.0633317041   -2.7964125441
H        3.1021894896    2.3178883564    0.9743925383
H        1.2724764277   -2.2769743567    1.0287271181
H       -3.0369505453   -0.7892579470   -0.3870944614
H       -2.3604971323    0.7961052345   -0.7821019837
H       -3.1073277397    0.7087947294    1.5786643411
H       -2.0852977815   -0.6995261533    1.8776116160
27   

C        2.4552093302    0.7964031888   -0.4556863238
C        1.3995080015   -0.0118034918   -0.8566290115
C        0.9700704256   -3.6484765521   -1.8629286437
C        2.2943205560    1.6574851517    0.6283584639
C        1.1914135193   -3.0201275735    0.2780025072
C        0.3974508850   -2.8307478625   -0.8175879479
C        0.2004616229    0.0512815074   -0.1359139014
C        0.1093705960    0.9873034108    0.9376730093
C        2.0766511656   -4.2424559735   -1.3250868009
C       -0.8776963695   -2.0641840818   -0.8981090442
C       -2.2139473237   -0.1033753351   -0.1588747851
C       -2.1722702637    0.2925210006    1.3191076074
N        1.1465434219    1.7548729515    1.3061641038
N       -0.9336848026   -0.7269999363   -0.4818583500
O       -1.9176971618   -2.6248877223   -1.2379990768
O        2.2369933189   -3.8594994820   -0.0176798174
O       -1.0668488708    1.1578151438    1.6425058121
Br       3.2322018164   -5.4481612209   -2.2478640071
H        3.4027027420    0.7733454950   -0.9801636073
H        1.5139587043   -0.6572646957   -1.7209083963
H        0.5882578687   -3.7841718470   -2.8695059081
H        3.1284569627    2.2806855595    0.9295520559
H        1.0189846709   -2.5749598843    1.2517655024
H       -3.0620849243   -0.7743327762   -0.3277062357
H       -2.3628500164    0.7838468131   -0.7829121663
H       -3.1082840832    0.7963061064    1.5790893693
H       -2.1036080662   -0.6124841198    1.9313056166
27   

C        2.4391947855    0.7515327396   -0.4962434079
C        1.3671786056   -0.0478650758   -0.8706294933
C        1.0041765192   -3.4869282197   -1.8597358350
C        2.3018879199    1.6375000610    0.5706021509
C        1.0684362295   -3.1764234084    0.3602748619
C        0.3463587292   -2.8394739172   -0.7468406872
C        0.1758571207    0.0483504055   -0.1412009510
C        0.1099759186    1.0081935614    0.9135048534
C        2.0872447121   -4.1371385285   -1.3391278004
C       -0.9420306558   -2.0837557990   -0.7849409179
C       -2.2392714313   -0.0646155849   -0.1386600468
C       -2.1798918624    0.3607947515    1.3300719059
N        1.1619710620    1.7678049573    1.2558586932
N       -0.9738314964   -0.7212230877   -0.4560183874
O       -2.0006725493   -2.6673462019   -1.0039991188
O        2.1513813807   -3.9483794944    0.0180610170
O       -1.0562880721    1.2122477805    1.6262466236
Br       3.3311821756   -5.1753055742   -2.3466995024
H        3.3814491012    0.7019316170   -1.0281698304
H        1.4642773162   -0.7108636526   -1.7227455783
H        0.6941736643   -3.4797714999   -2.8994062434
H        3.1485383949    2.2533852079    0.8511966176
H        0.8205405788   -2.8811467373    1.3738254774
H       -3.1035611718   -0.7185040541   -0.2912546963
H       -2.3725746452    0.8128999141   -0.7797358485
H       -3.1043715577    0.8876197728    1.5855262930
H       -2.1235855828   -0.5323315033    1.9606804628
27   

C        2.4465553400    0.6688611467   -0.5517112361
C        1.3511219669   -0.1112478531   -0.8984676502
C        0.9547894418   -3.3909948486   -1.8470166365
C        2.3461538989    1.5711136701    0.5054912331
C        0.9707426780   -3.3846212515    0.3945674313
C        0.2776698084   -2.8912907385   -0.6699280488
C        0.1750938766    0.0193782890   -0.1515982616
C        0.1468992240    0.9953839255    0.8905152149
C        2.0216347351   -4.1159923310   -1.3966898067
C       -1.0047449091   -2.1208092699   -0.6272724720
C       -2.2360565965   -0.0230489869   -0.1240967121
C       -2.1584445327    0.4214752091    1.3376568912
N        1.2203096407    1.7364901516    1.2059571430
N       -0.9958101020   -0.7315629755   -0.4304930611
O       -2.0853172415   -2.7023094449   -0.6733534962
O        2.0556258638   -4.1144146856   -0.0257294586
O       -1.0039255977    1.2369891845    1.6171999116
Br       3.2829043089   -5.0161000152   -2.5099035703
H        3.3788870633    0.5914871564   -1.0975290305
H        1.4188990180   -0.7841540091   -1.7440663009
H        0.6702250163   -3.2401018294   -2.8829308781
H        3.2106039421    2.1713449779    0.7648987549
H        0.7011983234   -3.2284381241    1.4332203486
H       -3.1258822238   -0.6427772417   -0.2722837161
H       -2.3346816924    0.8498188648   -0.7777211428
H       -3.0627538791    0.9852349713    1.5862885481
H       -2.1329458040   -0.4636314687    1.9814624254
27   

C        2.2240007043    1.6210953341   -0.0995913124
C        1.5560336910    0.4458134162    0.2187904890
C        1.0652639875   -1.6666380172   -2.3015512682
C        1.4983016630    2.7432851880   -0.4953571274
C        2.0106590930   -2.8991593359   -0.6836494761
C        0.8692632937   -2.2134426087   -0.9767355599
C        0.1611649743    0.4211557718    0.1095043340
C       -0.5055791020    1.6255273291   -0.2674407435
C        2.3087049500   -2.0668148118   -2.7008440028
C       -0.3122911924   -2.0128148807   -0.0843297102
C       -1.9323006847   -0.4354588669    0.9456780215
C       -2.6275990655    0.4885157147   -0.0570276545
N        0.1640052110    2.7485393442   -0.5704514868
N       -0.6057442212   -0.7331250000    0.4114488059
O       -1.1123461569   -2.9198301643    0.1307817775
O        2.9052036507   -2.8219206664   -1.7225543026
O       -1.8850844119    1.6952062768   -0.3203457214
Br       3.1145546597   -1.6317115828   -4.3744452100
H        3.3037995774    1.6806948948   -0.0396151546
H        2.1162579784   -0.4179203470    0.5551492621
H        0.3718545471   -1.0549134567   -2.8691195549
H        2.0344936393    3.6521060566   -0.7431547344
H        2.1934028722   -3.4260475686    0.2463482929
H       -1.8385174312    0.0639445341    1.9154724545
H       -2.5393002824   -1.3333752805    1.0973896501
H       -2.7755832580   -0.0501811795   -0.9986808405
H       -3.6158165091    0.7547336088    0.3301131733
27   

C        2.1172743804    1.7050777315   -0.3747743578
C        1.4903195214    0.5032032008   -0.0732450111
C        0.8149283481   -1.3975536972   -2.5511320845
C        1.3514211206    2.8494668715   -0.5890807406
C        1.7751605004   -2.9532407808   -1.2477093795
C        0.6989997579   -2.1155184366   -1.2998871418
C        0.0917204385    0.4759383020   -0.0152951153
C       -0.6128107287    1.7014191386   -0.2121632820
C        1.9528635393   -1.8571041393   -3.1510320330
C       -0.3403489719   -1.9698123172   -0.2406036901
C       -1.8972015973   -0.4665114965    0.9828271990
C       -2.6961082288    0.5332353121    0.1430745168
N        0.0177671361    2.8499602884   -0.5032480433
N       -0.6327779382   -0.7048938737    0.2914624942
O       -1.0294220677   -2.9255795242    0.1109736875
O        2.5569010624   -2.8085302672   -2.3677000137
O       -1.9880945614    1.7652722980   -0.0934995520
Br       2.6210577578   -1.2573283710   -4.8342972881
H        3.1965851582    1.7676678110   -0.4404196413
H        2.0862685669   -0.3807364961    0.1212149369
H        0.1421363021   -0.6401271005   -2.9397468657
H        1.8556976787    3.7792796214   -0.8257695332
H        1.9889345312   -3.6349178117   -0.4317633183
H       -1.7043475349   -0.0535098419    1.9782591702
H       -2.4859524666   -1.3799358230    1.1123126361
H       -2.9430942221    0.0760254720   -0.8205920771
H       -3.6377557390    0.7552873291    0.6543275401
27   

C        2.0314928284    2.2310420225    0.4007263513
C        1.5858401588    0.9195346501    0.4996657580
C        1.8426270996   -0.8168394025   -2.0658510089
C        1.1288984979    3.2459676051    0.0884490196
C        2.6322404356   -2.5340160297   -0.8506429574
C        1.5436619145   -1.7172730717   -0.9719578377
C        0.2325050520    0.6545439204    0.2576064985
C       -0.6295343388    1.7574813967   -0.0189173182
C        3.0906729342   -1.1540989974   -2.5072563605
C        0.3290972189   -1.8118124319   -0.1172267022
C       -1.7099003468   -0.6947732122    0.7614461056
C       -2.4927794395    0.2302965796   -0.1741493029
N       -0.1725762183    3.0162021078   -0.1106708634
N       -0.3103430276   -0.6529268720    0.3469083604
O       -0.1856667723   -2.9017984157    0.1307515879
O        3.5930960659   -2.1997311023   -1.7737543110
O       -1.9892932546    1.5798647587   -0.1882794813
Br       4.0139109049   -0.2929778744   -3.9375719742
H        3.0725295915    2.4781892537    0.5690241103
H        2.2809094958    0.1320147456    0.7682854933
H        1.2112331182   -0.0279089088   -2.4615016805
H        1.4929045979    4.2640922007    0.0123580471
H        2.7268684110   -3.3348367752   -0.1252580182
H       -1.8018953703   -0.3506670722    1.7967133775
H       -2.1336797664   -1.7023892720    0.7062476525
H       -2.4535598214   -0.1719220419   -1.1916690133
H       -3.5423400369    0.2441151992    0.1351235813
27   

C        2.2407533309    1.7141602339    0.3008783012
C        1.5917593400    0.5141873200    0.5608493820
C        1.9439084689   -1.6858893627   -1.5295809481
C        1.5483747082    2.7548547843   -0.3159553480
C        2.0959533606   -3.4443754315   -0.1382302824
C        1.3037925951   -2.3655411756   -0.4213422423
C        0.2545049830    0.3814436702    0.1691320662
C       -0.3901715163    1.5095501282   -0.4197702755
C        3.0791935711   -2.3931353958   -1.8074354256
C        0.0222769917   -2.1031460243    0.2842891723
C       -1.9146449746   -0.5845130444    0.6208254652
C       -2.4340109475    0.2324030841   -0.5658342298
N        0.2612802773    2.6575950415   -0.6631153808
N       -0.4869661982   -0.8026149638    0.4083967012
O       -0.6524201854   -3.0356222783    0.7230644259
O        3.1944487432   -3.4684419777   -0.9628644986
O       -1.7314027757    1.4765923765   -0.7503812352
Br       4.3306352084   -1.9553274573   -3.1793451206
H        3.2785656638    1.8555349977    0.5768176131
H        2.1186244939   -0.2900497805    1.0628459695
H        1.5995663803   -0.7973239681   -2.0487611249
H        2.0697652529    3.6840716636   -0.5148895550
H        1.8861354036   -4.1824869387    0.6285440474
H       -2.0729371039   -0.0366754795    1.5554397856
H       -2.4755808802   -1.5223752509    0.6830764399
H       -2.3409480868   -0.3636730475   -1.4794454204
H       -3.4974907453    0.4418481556   -0.4155226287
27   

C        2.0926080250    2.0891599908    0.5865312130
C        1.5539169080    0.8216070760    0.7656063584
C        2.1850910654   -1.2428425715   -1.3675767068
C        1.3159541495    3.0957965167    0.0147462280
C        2.2635820606   -3.2101070061   -0.2842429381
C        1.5226408873   -2.0611816056   -0.3701565069
C        0.2414648154    0.5898445192    0.3387036469
C       -0.4972988576    1.6862612280   -0.1967588742
C        3.2849936757   -1.9452152118   -1.7714540563
C        0.2394416862   -1.9101261312    0.3632556101
C       -1.8340485457   -0.5905877707    0.7101046664
C       -2.4167808569    0.2410762380   -0.4367015754
N        0.0486876373    2.9011023462   -0.3631312026
N       -0.3913406511   -0.6665180700    0.5040840455
O       -0.3231616892   -2.8980220499    0.8392607729
O        3.3567532701   -3.1466022676   -1.1136536583
O       -1.8268494232    1.5508770635   -0.5479776410
Br       4.5395151124   -1.3518779915   -3.0807758654
H        3.1081721917    2.3093749991    0.8920185059
H        2.1438739320    0.0403345539    1.2331047823
H        1.8761396298   -0.2740759692   -1.7461270894
H        1.7515780114    4.0789945150   -0.1209511392
H        2.0210794994   -4.0599282055    0.3450698758
H       -2.0490869714   -0.1133208943    1.6717046420
H       -2.3055263655   -1.5785640736    0.7113109584
H       -2.2655415973   -0.2936870337   -1.3799628215
H       -3.4956325378    0.3468522342   -0.2869985877
27   

C        2.3488856054    1.8457874486   -0.4837061202
C        1.5361431654    0.7899074484   -0.8766222301
C        2.1647920613   -1.9203231445    0.3418598974
C        1.9240052097    2.7057051566    0.5286483020
C        1.3887264879   -3.6127286648   -0.9143624988
C        1.0961087892   -2.3214185667   -0.5555801647
C        0.3162633430    0.6104566438   -0.2163904206
C       -0.0637527973    1.5625878958    0.7747137578
C        3.0297628371   -2.9755427279    0.4082114265
C       -0.2114801005   -1.7240833468   -0.9375628832
C       -1.9885561190   -0.0786353781   -0.4037576344
C       -2.1674100686    0.4045154833    1.0394156743
N        0.7427854497    2.5713478452    1.1399379664
N       -0.5811667558   -0.4230834933   -0.5727650500
O       -1.0283310265   -2.3917337384   -1.5756158390
O        2.5799759110   -4.0157288898   -0.3625806600
O       -1.3018436376    1.5036853365    1.3861053029
Br       4.6255179557   -3.0154289608    1.4534657866
H        3.3076302477    2.0156272764   -0.9582039513
H        1.8456352551    0.1284549678   -1.6793471950
H        2.2683227525   -0.9926664220    0.8936320389
H        2.5708545174    3.5227639915    0.8267501745
H        0.7654189504   -4.2424263799   -1.5405985532
H       -2.6484106134   -0.9340033959   -0.5811489669
H       -2.2663414799    0.7136087168   -1.1065706372
H       -3.2081725085    0.7092784333    1.1860112449
H       -1.9683237691   -0.4274322271    1.7226465633
27   

C        2.3750064028    1.7406601152   -0.4535568704
C        1.5419136877    0.6953555472   -0.8306783599
C        2.0452408943   -1.9952311467    0.4806633239
C        1.9546382760    2.6414299109    0.5238480582
C        1.4925105914   -3.5225807487   -1.0722985548
C        1.0552101383   -2.3484953684   -0.5185140411
C        0.3035928522    0.5673054352   -0.1913815580
C       -0.0663575974    1.5570271247    0.7668726792
C        3.0110526912   -2.9595824688    0.4217439573
C       -0.2666874435   -1.7698734242   -0.8720753403
C       -2.0169068725   -0.0815152825   -0.3750419054
C       -2.1926105172    0.4485797064    1.0513214433
N        0.7596938150    2.5554984109    1.1166122949
N       -0.6150922721   -0.4557647877   -0.5314855977
O       -1.1103521121   -2.4572747123   -1.4506326085
O        2.6969983883   -3.8974291375   -0.5285302430
O       -1.3122621156    1.5453709966    1.3643349821
Br       4.5716252375   -3.0107060844    1.5181903093
H        3.3466152662    1.8705795282   -0.9142999080
H        1.8518684479    0.0057259845   -1.6087007042
H        2.0316890096   -1.1508886278    1.1619632579
H        2.6173305247    3.4502812590    0.8092561009
H        0.9610705805   -4.0872288839   -1.8311012383
H       -2.6921501228   -0.9295934394   -0.5273769258
H       -2.2796460991    0.6934656737   -1.1024150440
H       -3.2290741596    0.7732101374    1.1850461425
H       -2.0073729804   -0.3641978717    1.7610114420
27   

C        2.4640597313    1.3596127961   -0.3494569950
C        1.5432256623    0.4007556000   -0.7511610328
C        1.7875656169   -2.3404474407    0.5763287823
C        2.1236402651    2.2683278107    0.6511719929
C        1.3228314152   -3.6176222767   -1.2136926912
C        0.8356822240   -2.5612609668   -0.4937184315
C        0.2975616573    0.3649091323   -0.1136921953
C        0.0164493563    1.3570253409    0.8720746132
C        2.7806731115   -3.2619575772    0.4007256913
C       -0.4657813573   -1.9123995073   -0.8005690969
C       -2.0705056258   -0.0854586251   -0.2923269684
C       -2.1913640333    0.4195285323    1.1483778472
N        0.9258846382    2.2712965346    1.2444325957
N       -0.7053929355   -0.5706938724   -0.4711586142
O       -1.3866784194   -2.5618310757   -1.2979353571
O        2.5190032946   -4.0481669808   -0.6930223279
O       -1.2228563673    1.4338522634    1.4782956695
Br       4.3163825035   -3.4393981159    1.5187726963
H        3.4436953021    1.4155187273   -0.8081206835
H        1.7939937863   -0.2927991611   -1.5464449141
H        1.7328533936   -1.6006735434    1.3684205668
H        2.8543864896    3.0086937204    0.9556968971
H        0.8325393774   -4.0586711675   -2.0750083579
H       -2.8171937666   -0.8677115862   -0.4615881889
H       -2.2720343815    0.7282548278   -0.9965584825
H       -3.1970206601    0.8230683209    1.3008949606
H       -2.0664233599   -0.4237023239    1.8354027847
27   

C        2.4178180268    1.6201902596   -0.2759263336
C        1.5956686300    0.5609042252   -0.6369605865
C        1.8398468736   -2.0311165689    1.0672012643
C        1.9366209489    2.6071711749    0.5822377707
C        1.8319544537   -3.2759625070   -0.8033629504
C        1.0768531548   -2.3677677302   -0.1165150068
C        0.3024732613    0.5074097582   -0.1027986615
C       -0.1220499498    1.5791639607    0.7382456360
C        2.9972681558   -2.7529824623    0.9930673092
C       -0.2577527185   -1.8825736840   -0.5610110395
C       -2.0115054835   -0.1283813294   -0.4041474952
C       -2.2807061718    0.5207281369    0.9560539193
N        0.6937378776    2.5910098286    1.0733465126
N       -0.6080237256   -0.5310451061   -0.4270356738
O       -1.1085647162   -2.6669856154   -0.9798521902
O        3.0139073305   -3.5178804164   -0.1464245856
O       -1.4101870241    1.6339132075    1.2350177888
Br       4.4003191767   -2.7046255596    2.2848911561
H        3.4287386434    1.6938995516   -0.6577242135
H        1.9590688231   -0.1933561663   -1.3257402175
H        1.5596654356   -1.3432174104    1.8583360562
H        2.5915122557    3.4262295464    0.8563312677
H        1.5406860334   -3.7409925852   -1.7389692779
H       -2.6925430968   -0.9746908931   -0.5379258539
H       -2.2065147722    0.5872971804   -1.2093899602
H       -3.3194763307    0.8633555464    0.9876395218
H       -2.1565953696   -0.2303533600    1.7428902727
27   

C        2.4515807507    1.2269726542    0.3476834187
C        1.5720049195    0.2347887033   -0.0651324204
C        0.9878482416   -2.0969722141    2.0393289665
C        1.9573365737    2.3802028405    0.9542139997
C        1.4097770378   -3.4085873868    0.2666026006
C        0.5313179284   -2.4659790496    0.7164593656
C        0.2031275359    0.4185151185    0.1641835722
C       -0.2197710115    1.6452191069    0.7585400191
C        2.1062895118   -2.8435716162    2.2793832670
C       -0.6277457944   -1.9230713458   -0.0486464584
C       -2.0653869711    0.0354652902   -0.5756191096
C       -2.5121227909    0.9020510194    0.6043771502
N        0.6517083353    2.5882718586    1.1492814105
N       -0.7678621438   -0.5386631544   -0.2286670455
O       -1.5308834224   -2.6584041054   -0.4430041028
O        2.3829448495   -3.6514176533    1.2049060515
O       -1.5595970678    1.9278248707    0.9444686017
Br       3.1487208133   -2.7705379931    3.8755032074
H        3.5191712689    1.1199520429    0.1995768466
H        1.9530670963   -0.6496059071   -0.5620905924
H        0.5419891841   -1.3698645732    2.7100686675
H        2.6570155056    3.1442534644    1.2728743967
H        1.3527673442   -3.8949115730   -0.7010689131
H       -2.8255981977   -0.7272440320   -0.7707890311
H       -1.9715207150    0.6474302072   -1.4785785436
H       -3.4696732004    1.3713957201    0.3590263641
H       -2.6717806834    0.2629821884    1.4789059536
27   

C        2.4934715144    1.2184026296   -0.1360568900
C        1.5545464807    0.2843864813   -0.5542724739
C        1.2652977321   -2.4186653163    1.3542768635
C        2.1119784958    2.2426355839    0.7288497155
C        1.5458415046   -3.2071001642   -0.7267317654
C        0.6610800771   -2.5118927374    0.0432518535
C        0.2459833294    0.3920000867   -0.0703224648
C       -0.0677916630    1.4926141476    0.7824646054
C        2.4655297070   -3.0651860401    1.2694979046
C       -0.6336252736   -1.9108334344   -0.3984702757
C       -2.1095621773    0.0859950869   -0.4849581603
C       -2.3600628307    0.7331921845    0.8792197159
N        0.8589509223    2.3817060888    1.1722797345
N       -0.7792593065   -0.5156276415   -0.4398552608
O       -1.6230648122   -2.6072845595   -0.6105624752
O        2.6567954476   -3.5544015603    0.0017495776
O       -1.3566100160    1.7044726491    1.2350456976
Br       3.7112943825   -3.2544246259    2.7019441081
H        3.5201063770    1.1659213325   -0.4772026072
H        1.8422109520   -0.4947243745   -1.2494825252
H        0.8574135987   -1.9292513036    2.2324956214
H        2.8571445474    2.9620426496    1.0482875833
H        1.3990965549   -3.4454214938   -1.7743833226
H       -2.8978571657   -0.6437719546   -0.6941285579
H       -2.1476641455    0.8440890768   -1.2739768465
H       -3.3399614547    1.2200027049    0.8677724776
H       -2.3874741309   -0.0469617873    1.6469601575
27   

C        2.3742110652    1.0106735648    0.2920762894
C        1.5191942162   -0.0444882571    0.5825314789
C        1.8559218297   -3.4650775645    0.5832625360
C        1.8987115754    2.1103303224   -0.4195932284
C        1.3593169734   -2.8847797976   -1.5242594599
C        0.8600787442   -2.8361563108   -0.2572634838
C        0.1981255840    0.0214578648    0.1260807312
C       -0.2157815918    1.2020806888   -0.5625338280
C        2.8900021913   -3.8101177391   -0.2402670361
C       -0.5006478667   -2.3680094688    0.1542464646
C       -2.1201950181   -0.5190804774    0.5126184580
C       -2.4467207579    0.2890252569   -0.7446392562
N        0.6311604065    2.2078209674   -0.8311001455
N       -0.7493860512   -1.0047846827    0.3745872947
O       -1.4402620728   -3.1560445216    0.2176174318
O        2.6099368037   -3.4522926738   -1.5341823297
O       -1.5249872429    1.3729323664   -0.9719631271
Br       4.4942231551   -4.6777516021    0.3200240978
H        3.4069747842    0.9948925170    0.6181074588
H        1.8800138244   -0.8806673859    1.1682353623
H        1.7953486513   -3.6464007474    1.6511185630
H        2.5790365229    2.9248556896   -0.6399344509
H        0.8394789423   -2.5295618399   -2.4071161079
H       -2.1995560899    0.1175916318    1.3998617363
H       -2.8472799523   -1.3290395679    0.6271881363
H       -2.4335691816   -0.3770912148   -1.6133541703
H       -3.4591899486    0.6941055561   -0.6538970059
27   

C        2.3640690813    1.0448780077    0.2492912991
C        1.5163170422   -0.0099345392    0.5608698355
C        1.8407866032   -3.5912897060    0.5773735905
C        1.8794632602    2.1298727455   -0.4786164552
C        1.3704276319   -2.7278819763   -1.4382702664
C        0.8732864465   -2.8208125590   -0.1714222059
C        0.1919193667    0.0420727405    0.1093219746
C       -0.2307689225    1.2075611652   -0.5985316472
C        2.8580827909   -3.8751598282   -0.2894587503
C       -0.4637155455   -2.3542933068    0.3054128386
C       -2.1280921228   -0.5183334561    0.4964657810
C       -2.4493954691    0.2683966639   -0.7761319687
N        0.6099551893    2.2127628623   -0.8877968758
N       -0.7480293094   -0.9838418931    0.3872435582
O       -1.3606336980   -3.1623726954    0.5332638816
O        2.5947134524   -3.3436557580   -1.5263594929
O       -1.5415728980    1.3625959035   -1.0078332675
Br       4.4203262249   -4.8804819001    0.1453893991
H        3.3981370196    1.0402406396    0.5716754028
H        1.8854092623   -0.8363657281    1.1574007933
H        1.7703595595   -3.9032812006    1.6140827021
H        2.5543583143    2.9444758772   -0.7148422331
H        0.8674402029   -2.2400269528   -2.2658730756
H       -2.2332271455    0.1269674017    1.3747089099
H       -2.8430050703   -1.3400612107    0.6037862071
H       -2.4145603383   -0.4088974704   -1.6355293304
H       -3.4690182335    0.6592402221   -0.7048645713
27   

C        2.3411444509    1.1573400334    0.2379821736
C        1.5410457507    0.0701606641    0.5640738126
C        1.9141300342   -3.7087506089    0.5202432679
C        1.8075816867    2.2122704311   -0.5002114427
C        1.5425922255   -2.5238128568   -1.3466547309
C        0.9999725157   -2.7914229945   -0.1217265165
C        0.2141238396    0.0608053319    0.1165061279
C       -0.2614061957    1.1985029832   -0.6021984814
C        2.9464964553   -3.8991838462   -0.3541479520
C       -0.3251580783   -2.3569610362    0.4030609338
C       -2.0786185110   -0.5994164976    0.5181142432
C       -2.4360246034    0.1594961395   -0.7622058706
N        0.5344872227    2.2351711066   -0.9064199226
N       -0.6784994464   -1.0006768986    0.4134444339
O       -1.1619095309   -3.1917576508    0.7413747121
O        2.7439226524   -3.1710001321   -1.4988749016
O       -1.5791920734    1.2913078465   -1.0073928799
Br       4.4526830173   -5.0285932909   -0.0436995996
H        3.3753259579    1.2014723995    0.5571588207
H        1.9468738737   -0.7350656220    1.1670754562
H        1.7972896359   -4.1736023815    1.4937177291
H        2.4456719039    3.0527841387   -0.7477126269
H        1.0866129199   -1.8919718622   -2.1009627221
H       -2.2153228661    0.0476322103    1.3906951531
H       -2.7530100460   -1.4542773064    0.6296270130
H       -2.3710860711   -0.5242536294   -1.6147338447
H       -3.4724170691    0.5041092355   -0.6940514962
27   

C        2.3234444109    1.2304660208    0.2730955978
C        1.5414904870    0.1364809563    0.6206310223
C        1.8347339066   -3.8715034385    0.4976684221
C        1.7806915443    2.2482316757   -0.5100997057
C        1.6851612884   -2.3900706727   -1.1768883568
C        1.0395456683   -2.7889220987   -0.0376400848
C        0.2248269767    0.0837933847    0.1483797263
C       -0.2636896048    1.1860266281   -0.6145584121
C        2.9018339416   -4.0230355944   -0.3414239515
C       -0.2665460633   -2.3354370951    0.5099079826
C       -2.0558212160   -0.6124211632    0.5437762374
C       -2.4143538691    0.0956233867   -0.7656088743
N        0.5151669235    2.2289897332   -0.9399951048
N       -0.6470823080   -0.9872907430    0.4644257189
O       -1.0741326823   -3.1634821626    0.9297254437
O        2.8351824392   -3.1152530872   -1.3670910880
O       -1.5765959897    1.2348772578   -1.0428257184
Br       4.2846369145   -5.3214938269   -0.1350906249
H        3.3501391620    1.3090989530    0.6094602447
H        1.9504604426   -0.6430673912    1.2553077708
H        1.6167049985   -4.4634461245    1.3807873589
H        2.4046085567    3.0941631478   -0.7747175903
H        1.3358507333   -1.6142176653   -1.8493564692
H       -2.2147876842    0.0602569374    1.3928990986
H       -2.7127908439   -1.4778389756    0.6764832811
H       -2.3278457160   -0.6158922522   -1.5931957782
H       -3.4578704224    0.4219454671   -0.7195708506
27   

C        2.3248554562    1.2860602209    0.2623132265
C        1.5566767188    0.1861921544    0.6227712580
C        1.7187049567   -4.0226763479    0.3244973433
C        1.7737129696    2.2806214278   -0.5453175532
C        1.8085125264   -2.3033146436   -1.1065353859
C        1.0554591213   -2.7994676703   -0.0735383783
C        0.2471627066    0.1047683600    0.1369317441
C       -0.2534958692    1.1859172315   -0.6471700275
C        2.8146773740   -4.1568037035   -0.4787503601
C       -0.2168325830   -2.3180848574    0.5247686698
C       -2.0202157772   -0.6121615410    0.5472284218
C       -2.3924045692    0.0675068932   -0.7739819326
N        0.5123861683    2.2341830049   -0.9857375564
N       -0.6085635719   -0.9736539448    0.4641163735
O       -0.9953176843   -3.1315269204    1.0235448904
O        2.8931331750   -3.1067689393   -1.3560327124
O       -1.5654433015    1.2076817564   -1.0810060233
Br       4.0577971393   -5.6026881707   -0.4084769797
H        3.3468929928    1.3876618686    0.6066816357
H        1.9682492341   -0.5783809119    1.2742322865
H        1.3973982150   -4.7104063563    1.1004606731
H        2.3869112420    3.1309067010   -0.8208324161
H        1.5810151667   -1.4069926776   -1.6726121816
H       -2.1807078652    0.0745927188    1.3847375612
H       -2.6667158476   -1.4822592145    0.6997624397
H       -2.3056437023   -0.6599657098   -1.5875867767
H       -3.4382783730    0.3862148143   -0.7278395053
27   

C        2.2771941788    1.3652895882    0.3159041584
C        1.5272021408    0.2537300628    0.6803049875
C        1.5718319550   -4.1351426461    0.1215311272
C        1.7249122070    2.3253737936   -0.5326445724
C        1.9465048221   -2.2315432402   -0.9905979282
C        1.0577642164   -2.8005211823   -0.1117688077
C        0.2380736298    0.1259070153    0.1539074792
C       -0.2702975239    1.1769032029   -0.6645332280
C        2.7133117854   -4.2590082481   -0.6161297981
C       -0.1921616792   -2.3076855345    0.5259105968
C       -2.0133868081   -0.6239774721    0.5537310043
C       -2.3897184586    0.0175250918   -0.7860087619
N        0.4781276918    2.2363609878   -1.0069557741
N       -0.5967588755   -0.9661957800    0.4799824359
O       -0.9485438457   -3.1192320802    1.0621617301
O        2.9636255305   -3.0995400332   -1.3004254366
O       -1.5736675027    1.1576682210   -1.1244958645
Br       3.8064395342   -5.8209449461   -0.6965555850
H        3.2854973680    1.5028168492    0.6872344895
H        1.9349231960   -0.4876054848    1.3606323874
H        1.1278721554   -4.8964760820    0.7555924071
H        2.3240989551    3.1842469828   -0.8123286288
H        1.8658720020   -1.2408083963   -1.4214091904
H       -2.1848102466    0.0812792059    1.3735594239
H       -2.6477901845   -1.4989585484    0.7277243652
H       -2.2946752351   -0.7307721104   -1.5795499771
H       -3.4389187712    0.3264868296   -0.7497150255
27   

C        2.2431405607    1.4644274632    0.3598319439
C        1.5129687208    0.3467831670    0.7467132702
C        1.4453634839   -4.2049261091   -0.0256014618
C        1.6985954209    2.3636345566   -0.5583376767
C        2.1135462997   -2.2182404607   -0.7984640626
C        1.0918125494   -2.7991277640   -0.0861505554
C        0.2560260975    0.1496801509    0.1688553669
C       -0.2532331935    1.1463255927   -0.7137652697
C        2.6255308945   -4.3545378102   -0.6929035642
C       -0.1399917539   -2.2859837211    0.5757855766
C       -1.9806026666   -0.6278509554    0.5584805552
C       -2.3486855840   -0.0607947445   -0.8175139560
N        0.4757776159    2.2122341907   -1.0773002675
N       -0.5580441262   -0.9489672621    0.5161871893
O       -0.8783715200   -3.0868508506    1.1523681256
O        3.0528972572   -3.1464777655   -1.1726364349
O       -1.5414849507    1.0693385571   -1.2096726628
Br       3.5537489608   -6.0046745223   -0.9309327696
H        3.2295167713    1.6536955193    0.7656321525
H        1.9103579543   -0.3493837895    1.4788897919
H        0.8767816557   -4.9931284933    0.4585881043
H        2.2824799177    3.2270563013   -0.8558350117
H        2.1909713247   -1.1772906714   -1.0815770692
H       -2.1725032181    0.1151382192    1.3395758799
H       -2.6031240055   -1.5029536678    0.7706891625
H       -2.2370649206   -0.8487249769   -1.5693837201
H       -3.4016396669    0.2373002186   -0.8082417798
