62

C     -3.74271    0.56593    1.98242
C     -2.48418    0.87523    1.46260
C     -4.59754    0.32808   -0.25858
C     -3.33900    0.63737   -0.77842
C     -4.81551    0.29076    1.12440
C     -2.26619    0.91245    0.07960
C     -6.98601    1.30456    2.08289
C     -0.09535   -0.10259   -0.87652
C     -7.46932    0.95187    3.49828
C      0.38620    0.24686   -2.29324
C     -6.19807    0.02752    1.66443
C     -0.88346    1.17515   -0.46030
C     -6.67965   -3.25668    6.09033
C     -8.28607   -3.35935    4.13015
C      1.20834    4.55554   -2.93372
C     -0.40096    4.45220   -4.89149
C     -8.52490   -0.72023    5.66776
C      1.44097    1.91344   -4.46698
C     -7.07610   -2.64038    4.74142
C     -0.00364    3.83749   -3.54211
C     -7.28221   -1.11105    4.85751
C      0.19989    2.30762   -3.65591
N     -7.39802   -0.51888    3.51691
N      0.31623    1.71759   -2.31441
O     -6.10294   -0.74554    2.86394
O     -0.97823    1.94646   -1.66097
H     -3.89871    0.52929    3.05642
H     -1.66092    1.09035    2.14126
H     -5.42079    0.11294   -0.93723
H     -3.18298    0.67401   -1.85241
H     -7.81874    1.48232    1.39803
H     -6.34849    2.19084    2.08479
H     -0.73232   -0.98927   -0.87537
H      0.73836   -0.27806   -0.19226
H     -6.80592    1.39346    4.25971
H     -8.49540    1.27179    3.69057
H      1.41170   -0.07441   -2.48637
H     -0.27874   -0.19552   -3.05288
H     -6.78545   -0.53459    0.92685
H     -0.29643    1.73833    0.27674
H     -7.49920   -3.22182    6.81709
H     -6.40715   -4.30973    5.96163
H     -5.81749   -2.74156    6.52981
H     -9.14801   -3.34891    4.80732
H     -8.58448   -2.88802    3.18951
H     -8.04322   -4.40817    3.92700
H      2.06926    4.54272   -3.61213
H      0.96741    5.60505   -2.73185
H      1.50738    4.08522   -1.99279
H      0.41758    4.41494   -5.61927
H     -1.26446    3.93766   -5.32900
H     -0.67172    5.50586   -4.76414
H     -9.44123   -0.95293    5.11769
H     -8.54660   -1.26460    6.61487
H     -8.53060    0.34690    5.90614
H      2.35836    2.14556   -3.91843
H      1.44465    0.84592   -4.70363
H      1.46240    2.45625   -5.41500
H     -6.23095   -2.77253    4.05945
H     -0.84763    3.97211   -2.85919
H     -6.38937   -0.69070    5.35446
H     -0.69422    1.88787   -4.15106
