23   

C       -4.8394601319   -6.8729070988   -2.0221283361
C        1.2347101979   -4.8207366138    3.1736933612
C       -3.3355728355   -4.8946904544   -1.4716640763
C        1.0757269249   -5.3672090271    1.9398700884
C       -3.7725523613   -6.5056214856    0.1796505934
C       -4.0130480411   -6.1339506494   -1.1173616837
C       -2.5758945630   -4.3762083332   -0.4440670977
C        0.6971207517   -3.5088218152    3.4436245021
C       -0.1413604739   -3.3644611657    1.3093939195
C       -1.8558197225   -3.1092718631   -0.4969829350
C       -0.8855133087   -2.6259284124    0.3053439557
N       -5.5075033595   -7.4769052331   -2.7604418875
N        0.0167427200   -2.8104622613    2.4726302923
N        0.3830437887   -4.6182216358    0.9895585499
O        0.8350717114   -3.0208991968    4.5519777345
S       -2.7150895574   -5.3748436678    1.0131888044
H        1.7543465506   -5.3328156079    3.9710964102
H       -3.4334601270   -4.4289965528   -2.4468830903
H        1.4780533660   -6.3534875391    1.7199024625
H       -4.1867344134   -7.3928051241    0.6451369064
H       -2.1559847554   -2.4459982632   -1.3020406532
H       -0.6957864291   -1.5600824749    0.2880650736
H        0.2106837514   -4.9592855041    0.0510006673
23   

C       -4.5232502843   -7.0160960869   -1.9709497401
C        1.3106813802   -4.8953976422    3.0976471329
C       -3.1738407547   -4.9317808196   -1.4118557403
C        0.9598311406   -5.4544654645    1.9101346577
C       -3.8241720041   -6.3829762787    0.3167848517
C       -3.8679168449   -6.1551279160   -1.0345415258
C       -2.6029852662   -4.2822133003   -0.3396613593
C        0.9389678677   -3.5288676733    3.3759257957
C       -0.1127617987   -3.3523558392    1.3402668424
C       -1.8925396744   -3.0039293597   -0.3854846690
C       -0.8861604128   -2.5637883956    0.3957690864
N       -5.0509871903   -7.7195751915   -2.7342841886
N        0.2283224381   -2.7886343323    2.4588761546
N        0.2424540407   -4.6628340265    1.0146918343
O        1.2457923255   -3.0300289782    4.4448616509
S       -2.9386796320   -5.1312046757    1.1783009147
H        1.8635887867   -5.4375059857    3.8516130542
H       -3.1236313416   -4.5723842504   -2.4346219084
H        1.2343920326   -6.4822826724    1.6838112508
H       -4.2840654662   -7.2346853483    0.8052391805
H       -2.2063291931   -2.3249117443   -1.1720694657
H       -0.6711304806   -1.5024919004    0.3998552243
H       -0.0755678381   -5.0106361710    0.1172590008
23   

C       -4.2291395274   -7.1186684209   -2.0247244984
C        1.2507892753   -5.1087410187    3.0574333330
C       -3.0406647212   -4.9613266818   -1.3832767003
C        0.7230622144   -5.6367095058    1.9224793718
C       -3.9511535611   -6.3217286737    0.3016891797
C       -3.7646091969   -6.1800822398   -1.0496150700
C       -2.6858893365   -4.2274822960   -0.2751960064
C        1.0477961870   -3.7101541984    3.3499502254
C       -0.1839616201   -3.4383995425    1.4278634513
C       -1.9832621180   -2.9375394695   -0.2452337877
C       -0.9595047789   -2.5737040771    0.5508525503
N       -4.6005959098   -7.8855377640   -2.8183432878
N        0.3244708843   -2.9069087914    2.4979276510
N       -0.0005762110   -4.7816374831    1.0932385358
O        1.5132718553   -3.2379592880    4.3727171273
S       -3.2548785669   -4.9909236683    1.2172851966
H        1.8231973255   -5.6993090454    3.7585601894
H       -2.8142395468   -4.6664150355   -2.4030201457
H        0.8677906100   -6.6883807865    1.6856863225
H       -4.4714473755   -7.1555224373    0.7597344808
H       -2.2993128389   -2.2077848319   -0.9840909439
H       -0.7110568084   -1.5212002836    0.6094700005
H       -0.4473393192   -5.1009942250    0.2407694482
23   

C       -3.9344789959   -7.2299991315   -2.0035041470
C        1.2296304567   -5.2088097855    2.9804528834
C       -2.8995899590   -5.0004519707   -1.3428390895
C        0.5500977533   -5.7241677520    1.9233152646
C       -4.0444487375   -6.2645463877    0.2727594484
C       -3.6475657042   -6.2124667553   -1.0392077718
C       -2.7462589441   -4.1799471092   -0.2514413885
C        1.1646038267   -3.7910173471    3.2415441218
C       -0.2256915673   -3.4730939332    1.4371142957
C       -2.0581094473   -2.8783394278   -0.1748922471
C       -1.0065030573   -2.5665569438    0.6048532534
N       -4.1607198375   -8.0612870549   -2.7867704861
N        0.4258425711   -2.9558720044    2.4344404435
N       -0.1857535620   -4.8370647781    1.1400765700
O        1.7652451057   -3.3291502571    4.1963619411
S       -3.5257724161   -4.8535270468    1.1864922693
H        1.8237189554   -5.8235309870    3.6416101951
H       -2.5106779956   -4.7733365494   -2.3306463446
H        0.5886862582   -6.7901341386    1.7105344063
H       -4.6171265135   -7.0786968999    0.7030327730
H       -2.4054348316   -2.1092097728   -0.8576987034
H       -0.7236463439   -1.5235821374    0.6780848636
H       -0.7384794519   -5.1426428292    0.3462807357
23   

C       -3.6713903971   -7.2722863782   -1.9718572456
C        1.2151569404   -5.2215333415    2.9359392498
C       -2.7765390183   -4.9948424775   -1.2708717584
C        0.3888267272   -5.7329086353    1.9870789719
C       -4.1778958185   -6.1833862493    0.1923769241
C       -3.5603307106   -6.1986237941   -1.0324533300
C       -2.8224693223   -4.1126633279   -0.2195892088
C        1.2739939653   -3.7927262249    3.1281937857
C       -0.2797247952   -3.4547872601    1.4649259419
C       -2.1545817800   -2.8016113928   -0.0838936948
C       -1.0762537401   -2.5252193828    0.6711194538
N       -3.7548748015   -8.1495259695   -2.7328207183
N        0.5098175853   -2.9433091305    2.3607058635
N       -0.3690070828   -4.8307079059    1.2430367122
O        2.0072130994   -3.3328158285    3.9865302462
S       -3.8318803423   -4.7161108722    1.0996088868
H        1.8375212739   -5.8473466560    3.5595887888
H       -2.2197083442   -4.8174487236   -2.1860898801
H        0.3326292553   -6.8072207924    1.8266696680
H       -4.8128006818   -6.9806474373    0.5630558851
H       -2.5579200226   -1.9903887253   -0.6820148207
H       -0.7698038459   -1.4889637597    0.7465486433
H       -1.0173366275   -5.1304055683    0.5224596584
23   

C       -3.4690759756   -7.3208124333   -1.9296750473
C        1.2385737354   -5.2508995184    2.8739577227
C       -2.6725533988   -5.0250371743   -1.1718906399
C        0.2733895751   -5.7558816347    2.0627008826
C       -4.3518876969   -6.1233438191    0.0484818823
C       -3.5134984726   -6.2055589096   -1.0342353905
C       -2.8957445726   -4.0950196936   -0.1864710050
C        1.4070404278   -3.8212413671    2.9683980194
C       -0.3105422209   -3.4698113663    1.4769766047
C       -2.2448063262   -2.7825088333    0.0095313721
C       -1.1350841041   -2.5282283785    0.7258710696
N       -3.4277080710   -8.2322432483   -2.6529216556
N        0.6095676960   -2.9655704662    2.2431970923
N       -0.5131035610   -4.8463506438    1.3580729659
O        2.2661683429   -3.3655071501    3.7033591947
S       -4.1514637520   -4.6191689558    0.9393802322
H        1.8930346243   -5.8823762546    3.4577562107
H       -1.9514430997   -4.8955484678   -1.9737039110
H        0.1331852743   -6.8310791799    1.9772468206
H       -5.0635032025   -6.8933922855    0.3257305041
H       -2.7240457443   -1.9340917514   -0.4691257203
H       -0.8132419761   -1.4960667437    0.7944448449
H       -1.2540425206   -5.1412509640    0.7308864149
23   

C       -3.7541288577   -7.7370831812   -0.6879526076
C        1.0828021069   -4.9745559979    3.3243996096
C       -2.5894590470   -5.4736829018   -0.6759292652
C       -0.0762186242   -5.4522166735    2.8014103940
C       -4.7056440690   -5.6862926862    0.3193681409
C       -3.7061378572   -6.3480469763   -0.3475891570
C       -2.7725535376   -4.1859538662   -0.2321593216
C        1.6355124510   -3.7441091257    2.8132591923
C       -0.1001672400   -3.5277919320    1.3167240649
C       -1.8844894846   -3.0202834267   -0.3997262297
C       -0.7333249351   -2.7612427496    0.2483604353
N       -3.7917828543   -8.8692786558   -0.9566801776
N        1.0077512483   -3.0534034191    1.8021140729
N       -0.6752967901   -4.7108778293    1.7843198699
O        2.6723699788   -3.3099862765    3.2849295684
S       -4.3291249861   -3.9867280839    0.5772594696
H        1.6143174183   -5.4835336827    4.1158230065
H       -1.7114861978   -5.8052333079   -1.2230510683
H       -0.5064948307   -6.3793612413    3.1732449659
H       -5.6279874553   -6.1524044569    0.6483817778
H       -2.2323792324   -2.2558703917   -1.0876907617
H       -0.1993745582   -1.8613161913   -0.0323593668
H       -1.5372102857   -5.0024345229    1.3356548578
23   

C       -3.6022618520   -7.7546229167   -0.5846509575
C        1.0917193086   -5.0331875647    3.2831223233
C       -2.5249155558   -5.4493830146   -0.5191816932
C       -0.1558832669   -5.4022321568    2.8924817125
C       -4.7898112623   -5.6795371120    0.0546391187
C       -3.6603724780   -6.3442829000   -0.3498942515
C       -2.8244022789   -4.1413877275   -0.2150606391
C        1.7081489031   -3.8760620712    2.6817338677
C       -0.1388470596   -3.5204631825    1.3549124456
C       -1.9631928950   -2.9534870915   -0.3040592833
C       -0.7985019569   -2.7169289226    0.3317428923
N       -3.5561894602   -8.9037496535   -0.7661295567
N        1.0520476833   -3.1475271088    1.7163081290
N       -0.7792208596   -4.6262323605    1.9163827836
O        2.8257540207   -3.5396895277    3.0335843121
S       -4.5173967069   -3.9520938573    0.2504343390
H        1.6482285794   -5.5762462445    4.0336836619
H       -1.5490278477   -5.7813841230   -0.8625277901
H       -0.6352077633   -6.2728893225    3.3343296427
H       -5.7461081039   -6.1595738376    0.2312267865
H       -2.3509573374   -2.1360001831   -0.9040783291
H       -0.2625364890   -1.8155264244    0.0597264388
H       -1.7043984894   -4.8416990363    1.5602425678
23   

C       -3.4684955379   -7.7665267793   -0.4731488914
C        1.0846936474   -5.0784508386    3.2439229308
C       -2.4823082770   -5.4226054995   -0.3641021240
C       -0.2248927266   -5.3363867281    2.9909567600
C       -4.8080039399   -5.7024322092   -0.2111148790
C       -3.6060563225   -6.3475069297   -0.3507938565
C       -2.8655498282   -4.1085318843   -0.2097524275
C        1.7397071971   -3.9961140721    2.5508790165
C       -0.1906006680   -3.5003928951    1.4002699407
C       -2.0469325253   -2.8938293911   -0.2077348503
C       -0.8758102927   -2.6647782064    0.4223335443
N       -3.3605130268   -8.9224012803   -0.5622690153
N        1.0584870899   -3.2302521043    1.6329166477
N       -0.8712204379   -4.5250252936    2.0593943619
O        2.9133793827   -3.7592061350    2.7794876881
S       -4.6211746026   -3.9574602920   -0.0846852460
H        1.6631039799   -5.6566653398    3.9504125870
H       -1.4520049934   -5.7405465279   -0.4983028440
H       -0.7338360579   -6.1494453161    3.5038021848
H       -5.7677365346   -6.2065561077   -0.1842157962
H       -2.4662632012   -2.0462657886   -0.7410787000
H       -0.3449523231   -1.7567203401    0.1630144399
H       -1.8412743902   -4.6649840247    1.7977445847
23   

C       -3.3754979623   -7.7452532766   -0.3894049648
C        1.0739032934   -5.1361016727    3.2275893270
C       -2.4412403317   -5.3836753447   -0.2239680427
C       -0.2723241259   -5.2706354492    3.1038694258
C       -4.7521023722   -5.6922723117   -0.4968065835
C       -3.5419408177   -6.3241526574   -0.3731242862
C       -2.8520739020   -4.0671543493   -0.2180395087
C        1.7600281562   -4.1328719358    2.4503542762
C       -0.2129376782   -3.4798261564    1.4642233469
C       -2.0786683971   -2.8324699897   -0.1094899704
C       -0.9083155720   -2.6098224394    0.5268110390
N       -3.2465308249   -8.9024685897   -0.3920236198
N        1.0713635888   -3.3234090211    1.5763192002
N       -0.9244258473   -4.4166662785    2.2152772796
O        2.9667962421   -4.0052805782    2.5651958884
S       -4.6019017158   -3.9408552806   -0.4313913307
H        1.6592623305   -5.7561405115    3.8916673296
H       -1.4040762224   -5.6977539274   -0.1480383558
H       -0.8047448584   -6.0224347726    3.6822440997
H       -5.6967213836   -6.2094689308   -0.6230843583
H       -2.5167036226   -1.9643474071   -0.5923012695
H       -0.3787221971   -1.6955875629    0.2880234311
H       -1.9227882332   -4.4703864215    2.0452281105
23   

C       -3.3553983147   -7.7594187386   -0.2890115373
C        1.1117611878   -5.1252538350    3.1653732195
C       -2.4615479542   -5.3848054074   -0.0935134659
C       -0.2457499302   -5.1815369084    3.1770969241
C       -4.6910597463   -5.7275296059   -0.7428092399
C       -3.5209121149   -6.3410058952   -0.3796788900
C       -2.8626177378   -4.0713657039   -0.2335140624
C        1.7749033774   -4.1828437645    2.2971312446
C       -0.2440009038   -3.4431217464    1.4822015033
C       -2.1511503952   -2.8123542944   -0.0390065839
C       -0.9804318030   -2.5647851851    0.5881849028
N       -3.2286701005   -8.9138730430   -0.2047135463
N        1.0514477073   -3.3577827495    1.4670040892
N       -0.9325719674   -4.3119305164    2.3304862267
O        2.9922647986   -4.1221581521    2.2944284131
S       -4.5518218612   -3.9746427209   -0.7472326127
H        1.7231867482   -5.7634140557    3.7875312761
H       -1.4560141956   -5.6950111459    0.1730849616
H       -0.7603988219   -5.8858977777    3.8269154729
H       -5.6006245773   -6.2585177090   -1.0002704743
H       -2.6229816427   -1.9418890853   -0.4842504220
H       -0.4781081866   -1.6328128976    0.3599962534
H       -1.9443948676   -4.3044140928    2.2664390992
23   

C       -4.2481268583   -7.2416908859    1.0215343578
C        1.1292303969   -4.9929090487    3.1394693739
C       -2.8716326808   -5.1600315869    0.5250979608
C        0.8215591666   -5.5729141505    1.9497470098
C       -4.6220758565   -5.7571319860   -0.9207047629
C       -3.9436657956   -6.0962148005    0.2198172075
C       -2.7604361569   -4.1385743421   -0.3980093149
C        0.8120132105   -3.6016148361    3.3538791737
C       -0.1227809239   -3.4462112629    1.2599334116
C       -1.8372076573   -3.0165727477   -0.5262728872
C       -0.7948012423   -2.6493256930    0.2501564303
N       -4.4903726666   -8.1817705008    1.6647033396
N        0.1811587419   -2.8632938392    2.3792037919
N        0.1988615078   -4.7772610180    0.9882672413
O        1.1023339714   -3.0759114995    4.4145055240
S       -3.9857466935   -4.2969275725   -1.6640926294
H        1.6100505270   -5.5356226825    3.9410408394
H       -2.2605945123   -5.2635953670    1.4145426879
H        1.0575062241   -6.6199261122    1.7725641106
H       -5.4568207031   -6.3209674740   -1.3214965194
H       -2.0578872180   -2.3307054181   -1.3382846360
H       -0.4642312438   -1.6196999638    0.1946447845
H       -0.0667394555   -5.1356242357    0.0780990711
23   

C       -4.3451895943   -7.2069802981    1.0164139691
C        1.1405256024   -5.1468826216    3.1486256729
C       -2.9887915372   -5.0920913774    0.6121712844
C        0.6661913756   -5.7006901632    2.0021252743
C       -4.4345717232   -5.8724216680   -1.0643299618
C       -3.9517303676   -6.1016170889    0.1973458463
C       -2.7571932226   -4.1329223614   -0.3532039301
C        0.9671048058   -3.7329711356    3.3777205053
C       -0.1510200619   -3.5001630127    1.3819831931
C       -1.8789630934   -2.9677805115   -0.3733213505
C       -0.8476421005   -2.6432061208    0.4367715884
N       -4.6590730925   -8.1146819024    1.6748095017
N        0.3098097463   -2.9447567940    2.4612772795
N        0.0234983834   -4.8556612168    1.0979154370
O        1.4028890653   -3.2320619706    4.3998969117
S       -3.7386640913   -4.4315156820   -1.7934054898
H        1.6496521677   -5.7275632654    3.9047808075
H       -2.5324824434   -5.0951194632    1.5971445088
H        0.7900951517   -6.7649501279    1.8143831334
H       -5.1636200149   -6.5039289544   -1.5595374270
H       -2.0998843906   -2.2368308803   -1.1449974553
H       -0.5279481568   -1.6084942542    0.4490000483
H       -0.3740960575   -5.1938026098    0.2287031328
23   

C       -4.4305913853   -7.1529953024    1.0102602754
C        1.1752621312   -5.1973313039    3.1117400094
C       -3.0935323135   -5.0179580772    0.6481615753
C        0.5607147859   -5.7427063676    2.0297852548
C       -4.2294014766   -5.9874383573   -1.1628368246
C       -3.9456928487   -6.0982334262    0.1736929244
C       -2.7394096104   -4.1317516525   -0.3474070289
C        1.1098964642   -3.7711948786    3.3195839598
C       -0.1702494106   -3.5063949665    1.4268003682
C       -1.9239268504   -2.9207490960   -0.2930981808
C       -0.8934295161   -2.6200102662    0.5264911410
N       -4.8184683175   -8.0195161639    1.6844110192
N        0.4213606706   -2.9610021886    2.4461168367
N       -0.1112857354   -4.8766452630    1.1681342358
O        1.6669042986   -3.2786831409    4.2854678088
S       -3.4717716464   -4.5776498929   -1.8927721113
H        1.7175375255   -5.7938642002    3.8315865900
H       -2.7918285682   -4.9183842892    1.6869978845
H        0.5999725840   -6.8162097970    1.8587832149
H       -4.8515481279   -6.6860222465   -1.7111600617
H       -2.1675703005   -2.1615441805   -1.0298907212
H       -0.5799677702   -1.5841385396    0.5714875257
H       -0.6176804871   -5.2066049788    0.3537510107
23   

C       -4.5608078516   -7.1285786788    0.9419706813
C        1.2274067091   -5.2078967171    3.0981371151
C       -3.2334060344   -4.9750175438    0.6618855109
C        0.4572948105   -5.7571554776    2.1230525776
C       -4.0117474722   -6.1047483967   -1.2429361619
C       -3.9624351094   -6.1157199621    0.1273666801
C       -2.7324729784   -4.1487683126   -0.3200279454
C        1.2729879566   -3.7731339020    3.2401635625
C       -0.1955082115   -3.5046206276    1.4888225956
C       -1.9857242357   -2.8952032933   -0.1915814842
C       -0.9538577988   -2.6053614509    0.6283814100
N       -5.0405591632   -7.9602419076    1.6006226650
N        0.5407570750   -2.9574052606    2.4084968590
N       -0.2569698771   -4.8861610621    1.3014284884
O        1.9672458456   -3.2772613957    4.1108025361
S       -3.1736582239   -4.7198410225   -1.9324735131
H        1.8139170290   -5.8073801663    3.7797850565
H       -3.1142353432   -4.7911549711    1.7261302350
H        0.4105542672   -6.8371778392    2.0027858485
H       -4.5122429415   -6.8604594625   -1.8382148849
H       -2.2654414942   -2.1109528928   -0.8882670358
H       -0.6477761986   -1.5679296393    0.6890547068
H       -0.8711901350   -5.2157502478    0.5644289211
23   

C       -4.6771224429   -7.1515823693    0.8450590288
C        1.2674587343   -5.1200419541    3.0655368016
C       -3.4030798713   -4.9573501548    0.6419725328
C        0.3686800962   -5.6886556773    2.2204466041
C       -3.7597035644   -6.2644802413   -1.2754077581
C       -3.9724510347   -6.1717250942    0.0763832272
C       -2.7580089119   -4.1824417872   -0.2941928628
C        1.3853006799   -3.6831483444    3.1107494377
C       -0.2590793606   -3.4488237786    1.5171955139
C       -2.1036579184   -2.8780463272   -0.1179319999
C       -1.0712571609   -2.5638417472    0.6896178942
N       -5.2432013864   -7.9551882832    1.4690141084
N        0.5965540479   -2.8841481649    2.3152879853
N       -0.4003123334   -4.8347213087    1.4311831490
O        2.1945293022   -3.1701562610    3.8643901890
S       -2.8593933133   -4.8914004198   -1.9084360037
H        1.9048869216   -5.7054043324    3.7128336435
H       -3.4918785280   -4.6885624551    1.6909431621
H        0.2655367928   -6.7704458567    2.1744200837
H       -4.1085971149   -7.0873463434   -1.8896449944
H       -2.4519742309   -2.0854945636   -0.7730702382
H       -0.7916389742   -1.5187891478    0.7484262808
H       -1.1026078423   -5.1781508766    0.7846108694
23   

C       -4.8021106064   -7.1376791624    0.7149447319
C        1.3288755650   -5.0774987573    3.0190613621
C       -3.5629973988   -4.9164579333    0.6134062142
C        0.3068918514   -5.6373196430    2.3210850686
C       -3.4961980519   -6.3591916515   -1.2381008016
C       -3.9791103591   -6.1855070647    0.0340553973
C       -2.7661642862   -4.1809535933   -0.2308747392
C        1.5272688683   -3.6499355799    2.9604395419
C       -0.2776406564   -3.4066479733    1.5525576927
C       -2.1811597213   -2.8446548457   -0.0123259082
C       -1.1349829466   -2.5214048686    0.7707805541
N       -5.4649296466   -7.9174197816    1.2700791165
N        0.6932347058   -2.8504204843    2.2129730069
N       -0.5037372569   -4.7841521230    1.5741187101
O        2.4475501713   -3.1456085076    3.5807197408
S       -2.5189528495   -4.9983015089   -1.7763883443
H        2.0068432315   -5.6631625392    3.6234412797
H       -3.8617187395   -4.5850141756    1.6038676552
H        0.1412257110   -6.7117463527    2.3550702336
H       -3.6955072599   -7.2327277531   -1.8491960618
H       -2.6128323575   -2.0379909453   -0.5967928854
H       -0.8657910038   -1.4735689175    0.8286761806
H       -1.2918077393   -5.1212769586    1.0314478237
23   

C       -4.9085739393   -7.1296490632    0.5620938533
C        1.3786716871   -5.0749554373    2.9588584771
C       -3.7145291590   -4.8816015735    0.5658232904
C        0.2453210610   -5.6025305390    2.4279172378
C       -3.2479421569   -6.4319954772   -1.1355178568
C       -3.9824593892   -6.1955527093   -0.0012447104
C       -2.7823596848   -4.1728936296   -0.1513889512
C        1.6570846354   -3.6708178060    2.7796323092
C       -0.2880134489   -3.3865401376    1.5822620575
C       -2.2549737479   -2.8167435636    0.1081130942
C       -1.1828331683   -2.4930368062    0.8531899286
N       -5.6556741603   -7.8935819134    1.0244248404
N        0.7878679485   -2.8602569840    2.0857085881
N       -0.5961265530   -4.7408900017    1.7265975693
O        2.6782168929   -3.1970634984    3.2474007985
S       -2.2062977410   -5.0771367022   -1.5547679644
H        2.0881217790   -5.6696308992    3.5164840289
H       -4.2063249595   -4.5043028725    1.4577083808
H        0.0178238706   -6.6585448210    2.5547620098
H       -3.3028875930   -7.3469829528   -1.7151882773
H       -2.7872438261   -1.9976614646   -0.3655838995
H       -0.9125730491   -1.4453175079    0.9069162246
H       -1.4618974070   -5.0548976647    1.3009697312
23   

C       -5.0120338251   -7.1111435993    0.3759722361
C        1.4319686814   -5.0596346060    2.9119852187
C       -3.8395716203   -4.8549817108    0.4941284008
C        0.2158531564   -5.5478296693    2.5550676257
C       -3.0578068445   -6.4835577307   -1.0072469294
C       -3.9952214861   -6.1976693216   -0.0473749024
C       -2.7893796781   -4.1723635583   -0.0686024057
C        1.7649531034   -3.6908818144    2.5996630773
C       -0.2875306857   -3.3645763922    1.6119508954
C       -2.3132658330   -2.8046981986    0.2249111366
C       -1.2142037863   -2.4712279298    0.9249885105
N       -5.8342138446   -7.8572970797    0.7264846945
N        0.8664488829   -2.8741763723    1.9514400407
N       -0.6536624758   -4.6824180876    1.8940949048
O        2.8599132179   -3.2542767134    2.9099986405
S       -1.9545517088   -5.1419693599   -1.2877230116
H        2.1685672925   -5.6604223337    3.4261790847
H       -4.4900082492   -4.4414560766    1.2590360307
H       -0.0534147303   -6.5765198499    2.7838178696
H       -3.0012095421   -7.4265072975   -1.5399531478
H       -2.9345624720   -1.9900010167   -0.1339371924
H       -0.9426570847   -1.4232159901    0.9618913305
H       -1.5760482352   -4.9705042815    1.5849149040
23   

C       -5.8349221670   -6.1548218797    0.4978752750
C        0.9829610838   -5.0683753059    3.3132565418
C       -4.0805507456   -4.3326850754    0.2144114976
C       -0.3533731615   -5.2120134989    3.1171003189
C       -3.5489335798   -6.5460479352   -0.3662819389
C       -4.5257966563   -5.7161071486    0.1220047529
C       -2.7808332314   -4.1613058387   -0.1969907950
C        1.7142799548   -4.1017955666    2.5300402257
C       -0.1992233055   -3.4882481251    1.4110967390
C       -1.9946726664   -2.9152065596   -0.2496634384
C       -0.8463385153   -2.6578933702    0.4031810305
N       -6.8977363306   -6.5124045437    0.8113897832
N        1.0766340844   -3.3243702975    1.5900032351
N       -0.9500753786   -4.4041717133    2.1510619255
O        2.9154414094   -3.9797991857    2.6976599435
S       -2.0576198468   -5.6857778263   -0.7279832640
H        1.5273768036   -5.6546082012    4.0398202534
H       -4.7152538938   -3.5259700298    0.5679082896
H       -0.9209535475   -5.9345303958    3.6992265045
H       -3.6767723564   -7.6120780582   -0.5185089184
H       -2.4159187159   -2.1045384864   -0.8359986241
H       -0.2978405985   -1.7654343403    0.1278010160
H       -1.9377015030   -4.4636685204    1.9273424875
23   

C       -5.8964286939   -6.1723351172    0.1927414160
C        1.1136094207   -5.0191944328    3.2643813932
C       -4.1349359169   -4.3387818612    0.0778744917
C       -0.2426082582   -5.0804112386    3.2164933859
C       -3.4977202969   -6.5737348182   -0.2652226121
C       -4.5473918272   -5.7335506960    0.0052833737
C       -2.7846445017   -4.1673659525   -0.1217583624
C        1.8155255556   -4.1326774138    2.3675999163
C       -0.1643966554   -3.4417185315    1.4252695793
C       -2.0392274859   -2.9018557203   -0.1500222404
C       -0.8660428283   -2.6210437912    0.4493075904
N       -6.9932178742   -6.5293248343    0.3524636626
N        1.1305010299   -3.3533230116    1.4633386006
N       -0.8888557021   -4.2712177594    2.2837477251
O        3.0328924110   -4.0838892771    2.4040000233
S       -1.9750386943   -5.7098923981   -0.4367490587
H        1.6956436486   -5.6135126628    3.9543250953
H       -4.8278972961   -3.5243811040    0.2640882807
H       -0.7876580465   -5.7417502712    3.8862556700
H       -3.5901939579   -7.6493047610   -0.3668225338
H       -2.5144884490   -2.0831652747   -0.6812603142
H       -0.3396595457   -1.7261990586    0.1409195792
H       -1.8961198683   -4.2749010725    2.1667122208
23   

C       -5.9315236029   -6.2210762347   -0.1145131190
C        1.2331256083   -4.8326948048    3.1946316187
C       -4.2153092511   -4.3427267752   -0.0492620077
C       -0.1191365120   -4.8257388080    3.3257154425
C       -3.4821679262   -6.5728315887   -0.1269530665
C       -4.5798326249   -5.7518068781   -0.0969628020
C       -2.8534702361   -4.1378474805   -0.0185599096
C        1.8505039845   -4.0296042188    2.1665737957
C       -0.2030478401   -3.2909591776    1.4465062789
C       -2.1759453275   -2.8410428053   -0.0274044152
C       -0.9928834490   -2.4976805937    0.5197457641
N       -7.0317689962   -6.6024790006   -0.1223970421
N        1.0881216841   -3.2642722022    1.3139439398
N       -0.8461982222   -4.0329742020    2.4391268862
O        3.0630005625   -4.0427704624    2.0429464868
S       -1.9717755715   -5.6724176282   -0.0928587449
H        1.8737124525   -5.4211849315    3.8360213176
H       -4.9484483885   -3.5425808597   -0.0464941114
H       -0.5998960522   -5.4233473562    4.0969146553
H       -3.5329698076   -7.6549881924   -0.1699968965
H       -2.7116692076   -2.0394430062   -0.5260820154
H       -0.5231147678   -1.5815501874    0.1841503042
H       -1.8587357901   -3.9885998599    2.4559897781
23   

C       -5.9311262287   -6.2364325586   -0.4629426916
C        1.3106590767   -4.8551603050    3.1870102123
C       -4.2299689834   -4.3649982741   -0.1762789131
C       -0.0107032913   -4.7275431226    3.4767115702
C       -3.5326237064   -6.5979616069    0.0238703487
C       -4.6013858550   -5.7725657534   -0.2095092015
C       -2.8970837661   -4.1595119234    0.1108217185
C        1.8569059361   -4.1634683958    2.0440678040
C       -0.2073533151   -3.2991534501    1.5246570047
C       -2.2385632864   -2.8584407586    0.1328959242
C       -1.0451988291   -2.5009424778    0.6484871620
N       -7.0145642290   -6.6133637214   -0.6636898956
N        1.0560394849   -3.3857003528    1.2395448000
N       -0.7791403201   -3.9264745715    2.6331617807
O        3.0404542067   -4.2848045387    1.7794588962
S       -2.0447684297   -5.7020936465    0.2977304073
H        1.9784433063   -5.4596267084    3.7843265262
H       -4.9377686333   -3.5654743223   -0.3692897462
H       -0.4366597466   -5.2398642261    4.3364207875
H       -3.5909589453   -7.6804280545    0.0364598130
H       -2.7889498775   -2.0570958256   -0.3498428167
H       -0.5990821841   -1.5757884527    0.3060052980
H       -1.7740258767   -3.7921801256    2.7711937408
23   

C       -5.0518827647   -6.7219413937   -1.8893293968
C        1.3106589157   -4.8219174963    3.2612776351
C       -3.3874579789   -4.8600859352   -1.3969714360
C        1.2960786210   -5.3364500819    2.0037630527
C       -3.6037261843   -6.6426157931    0.1142888297
C       -4.0478795093   -6.1156760330   -1.0695376885
C       -2.4381355974   -4.4809708586   -0.4702372340
C        0.6446413962   -3.5685964185    3.5233544398
C       -0.0384489656   -3.4234871780    1.3347400680
C       -1.7053181007   -3.2237986619   -0.5244066598
C       -0.7606210701   -2.7164126152    0.2939963317
N       -5.8655832900   -7.2179300677   -2.5587928764
N       -0.0191228090   -2.8983457838    2.5216008355
N        0.6192588353   -4.6144638241    1.0214625074
O        0.6604522486   -3.1058117037    4.6507746907
S       -2.3686948557   -5.6430430868    0.8661815835
H        1.8082409622   -5.3164088857    4.0834800811
H       -3.6357675270   -4.2808880849   -2.2802908741
H        1.7967886701   -6.2780274621    1.7899178575
H       -3.9709022145   -7.5673187137    0.5447443114
H       -2.0033770079   -2.5615178508   -1.3310113612
H       -0.5854393306   -1.6484598769    0.2645275721
H        0.5582314140   -4.9319845890    0.0612481131
