23   
Generated by ForceBalance from scan.xyz: Frame 1 of 11
C        4.9854509034    0.9482923279    6.5552848910
C        5.8270885330    0.6298628357    5.4455215571
C        3.6212267818    0.5537592931    6.5701550028
C        5.4238577334   -0.4061592493    4.5949241672
C        3.2791738070   -0.0344886929    5.3352278092
C        2.5456312108   -2.7309281890    2.2553146437
C        1.9424383508   -0.1296485238    4.8014938543
C        3.5902822730   -2.1607551324    2.8613512638
C        3.8447050605   -2.2622524240    4.3448965226
N        1.0531305838    0.6518174475    5.3373109303
N        4.2503762075   -0.9899383144    5.0217808783
O       -0.1443270047    0.5436249344    4.7148707915
H        5.3820755473    1.5676576255    7.3548562300
H        6.7887444481    1.1136029946    5.3198987209
H        2.8878104260    0.9921990908    7.2369994791
H        6.0746261246   -0.9516503158    3.9204182875
H        2.4291245068   -2.6846487128    1.1764367995
H        1.7825399266   -3.2763926538    2.8079265170
H        1.7120997632   -0.7460028624    3.9353699561
H        4.3440462834   -1.6405386865    2.2714581935
H        2.9788045067   -2.6556459979    4.8799224578
H        4.6785293494   -2.9447322285    4.5432929546
H       -0.7262214588    1.1788091741    5.1758131321
23   
Generated by ForceBalance from scan.xyz: Frame 2 of 11
C        5.0007319794    1.0429743119    6.4977364054
C        5.8873959146    0.5650394417    5.4991231337
C        3.6377994571    0.7156297642    6.4405417752
C        5.4634577893   -0.4939612708    4.7063092633
C        3.2643335619   -0.0358640980    5.3064250649
C        2.5546160859   -2.6713621843    2.1869260784
C        1.8968205364   -0.1799630116    4.8462745954
C        3.5969287996   -2.1295102892    2.8219247621
C        3.8262706559   -2.2640009730    4.3061470870
N        1.0138985493    0.6010665368    5.3832495318
N        4.2149070554   -0.9916780631    4.9919741159
O       -0.2124315819    0.4258903334    4.8265949526
H        5.3711811582    1.7116010668    7.2693240444
H        6.8959328109    0.9513971893    5.4065389767
H        2.8898218860    1.2286259656    7.0337763601
H        6.1234246526   -1.1038068223    4.0993732963
H        2.4559468908   -2.5992396456    1.1077436822
H        1.7757127337   -3.2191160117    2.7146408141
H        1.6394098673   -0.8471023241    4.0270998309
H        4.3669728134   -1.6032045930    2.2589003947
H        2.9513819460   -2.6632795031    4.8212295476
H        4.6562719584   -2.9482949603    4.5096729693
H       -0.7900738925    1.0623335857    5.2898080075
23   
Generated by ForceBalance from scan.xyz: Frame 3 of 11
C        5.0099283983    1.1114723322    6.4339107905
C        5.9303629121    0.4926177909    5.5605702938
C        3.6478951911    0.8267738573    6.3247144022
C        5.4959565650   -0.5831087460    4.8045174818
C        3.2603760959   -0.0505530726    5.2954807267
C        2.5504108751   -2.6206032460    2.1349139590
C        1.8726212669   -0.2198946604    4.8867280498
C        3.5995281911   -2.1048009195    2.7802602386
C        3.8187385145   -2.2664417490    4.2622872039
N        0.9945889018    0.5524191365    5.4367847814
N        4.2004780179   -0.9937000908    4.9533651133
O       -0.2492066740    0.3391729501    4.9260110069
H        5.3587415563    1.8419638472    7.1579582950
H        6.9698984467    0.7979474377    5.5218191331
H        2.8951133597    1.4080259117    6.8437858307
H        6.1662184928   -1.2447675469    4.2677372137
H        2.4554229580   -2.5296199023    1.0568889258
H        1.7622451896   -3.1652160375    2.6520409107
H        1.5958577483   -0.9133260316    4.0964489266
H        4.3798620570   -1.5790436677    2.2309436245
H        2.9401846083   -2.6707541229    4.7665867676
H        4.6460203870   -2.9534685121    4.4631090499
H       -0.8231710615    0.9700387509    5.4003228139
23   
Generated by ForceBalance from scan.xyz: Frame 4 of 11
C        5.0084690551    1.2131363833    6.3725026572
C        5.9549912648    0.4708102480    5.6443769708
C        3.6550714081    0.9490292174    6.2008939534
C        5.5177228851   -0.6285534613    4.9330563584
C        3.2557523801   -0.0456644349    5.2915843859
C        2.5654824340   -2.5601976809    2.1042200366
C        1.8590268050   -0.2521833370    4.9204093350
C        3.6164336394   -2.0658408132    2.7634307219
C        3.8278706384   -2.2506912930    4.2433143457
N        0.9748079797    0.4988129666    5.4860652944
N        4.1988499520   -0.9785854145    4.9426284348
O       -0.2777099200    0.2397513870    5.0143734798
H        5.3298813752    2.0105819072    7.0358360017
H        7.0124038589    0.7092359461    5.6684200907
H        2.8899789881    1.5749549393    6.6450022369
H        6.1957491888   -1.3293068694    4.4594369531
H        2.4773025854   -2.4523147840    1.0271950105
H        1.7687506376   -3.1043698849    2.6085126205
H        1.5787920387   -0.9669528711    4.1510698939
H        4.4057235349   -1.5399668620    2.2273489145
H        2.9487966836   -2.6647938383    4.7382288019
H        4.6561113055   -2.9373864580    4.4378807428
H       -0.8571392031    0.8542160399    5.5028587053
23   
Generated by ForceBalance from scan.xyz: Frame 5 of 11
C        5.0111883476    1.2722086870    6.2914494628
C        5.9656107994    0.4202904765    5.7135941955
C        3.6617750064    1.0288566421    6.0769823010
C        5.5276134836   -0.6970038716    5.0332266487
C        3.2558499974   -0.0578041363    5.2867436864
C        2.5513367232   -2.5015580535    2.0679278926
C        1.8502742228   -0.2859992872    4.9529447668
C        3.6112796088   -2.0297847986    2.7294347245
C        3.8312301821   -2.2441927137    4.2035922458
N        0.9726104558    0.4661124739    5.5250109012
N        4.2003315047   -0.9764824810    4.9150129467
O       -0.2903857359    0.1765341986    5.0972956850
H        5.3246489788    2.1270375245    6.8832934023
H        7.0301106928    0.6024565631    5.8104158326
H        2.8967582958    1.6996951558    6.4492321845
H        6.2089362743   -1.4342036947    4.6249342129
H        2.4578983369   -2.3714105740    0.9938414922
H        1.7530418755   -3.0490970033    2.5661319141
H        1.5550867189   -1.0271623497    4.2153905909
H        4.4017782664   -1.5001471712    2.1990543813
H        2.9569902909   -2.6715794168    4.6953770115
H        4.6627503866   -2.9309012933    4.3794685821
H       -0.8641482794    0.7929662575    5.5896619105
23   
Generated by ForceBalance from scan.xyz: Frame 6 of 11
C        5.0099851737    1.3159736305    6.2332788291
C        5.9667700146    0.3752996416    5.8255362293
C        3.6690920373    1.0805414285    5.9688668043
C        5.5383311753   -0.7621088460    5.1739317861
C        3.2646383838   -0.0870970731    5.3032222105
C        2.5277322063   -2.4510394991    2.0739628653
C        1.8560674568   -0.3507301334    5.0090558966
C        3.5967452175   -1.9788015422    2.7203767594
C        3.8682073669   -2.2448478983    4.1770887279
N        0.9826755505    0.4476378994    5.5213766459
N        4.2207568955   -0.9885217763    4.9185878337
O       -0.2866800734    0.0994132709    5.1599737849
H        5.3138333788    2.2225894913    6.7479809066
H        7.0261388596    0.5165900858    6.0086989520
H        2.9004274715    1.7843896172    6.2646169874
H        6.2259587342   -1.5277750208    4.8353375916
H        2.3974634130   -2.2835156661    1.0089669002
H        1.7582986299   -3.0360061697    2.5750258078
H        1.5485066887   -1.1693675557    4.3655253291
H        4.3584978638   -1.4105365655    2.1881207907
H        3.0239959209   -2.7204788377    4.6772677914
H        4.7253189945   -2.9108438657    4.2964695457
H       -0.8567607939    0.7571272689    5.6003900481
23   
Generated by ForceBalance from scan.xyz: Frame 7 of 11
C        5.0078639307    1.3509333227    6.1391742777
C        5.9570957806    0.3465067612    5.8989186062
C        3.6747345247    1.1118492808    5.8377053424
C        5.5464633875   -0.8117295457    5.2714932868
C        3.2775590234   -0.1219755313    5.2985294371
C        2.4204679860   -2.3575277107    2.0979818653
C        1.8706247879   -0.4412400383    5.0647359428
C        3.5201020678   -1.8808915097    2.6870672422
C        3.9227945409   -2.2254241443    4.0956522083
N        0.9964940183    0.4578519945    5.3655064704
N        4.2525295134   -0.9936292552    4.8882922864
O       -0.2737648525    0.0185813042    5.1290408281
H        5.3077344128    2.2988396848    6.5759073367
H        7.0005294392    0.4650461981    6.1689323241
H        2.9010695855    1.8334927130    6.0715790969
H        6.2402563189   -1.5963213444    4.9946934771
H        2.1972182906   -2.1292786102    1.0600637921
H        1.7173453678   -3.0055610823    2.6182894778
H        1.5581256290   -1.4033908239    4.6708679618
H        4.2130501839   -1.2470601481    2.1354536243
H        3.1542786368   -2.7944328051    4.6207379345
H        4.8292867331   -2.8335409275    4.0974294228
H       -0.8443749987    0.7673305476    5.3847024190
23   
Generated by ForceBalance from scan.xyz: Frame 8 of 11
C        5.0032528781    1.4166204765    6.0514490663
C        5.9193736204    0.3519543527    5.9887994044
C        3.6764387445    1.2019884179    5.6930684939
C        5.5213407253   -0.8254877984    5.3839961794
C        3.2800140184   -0.0821063731    5.2866043964
C        2.3510072764   -2.2698453625    2.1201860899
C        1.8778211348   -0.4349930827    5.0879815719
C        3.4606556942   -1.7735675665    2.6731729169
C        3.9465226524   -2.1541507389    4.0453938502
N        0.9948918609    0.4828599099    5.2936749843
N        4.2664365972   -0.9369388142    4.8641711922
O       -0.2715525328    0.0032309060    5.1306986602
H        5.3206827602    2.3900470661    6.4134030545
H        6.9342746426    0.4481862061    6.3580355084
H        2.9122780677    1.9533679673    5.8531295766
H        6.2080925175   -1.6372075068    5.1761001841
H        2.0677172273   -2.0130352353    1.1038228934
H        1.6987714139   -2.9622805263    2.6493463679
H        1.5755100671   -1.4439287191    4.8220031356
H        4.1014260638   -1.0936888734    2.1135761718
H        3.2280534514   -2.7771009407    4.5815044554
H        4.8780464566   -2.7191849258    3.9760487711
H       -0.8494953842    0.7695803754    5.3052939014
23   
Generated by ForceBalance from scan.xyz: Frame 9 of 11
C        5.0099291074    1.4212957711    5.9777272064
C        5.8681523242    0.3065661587    6.0839154828
C        3.6934274905    1.2457802382    5.5458141032
C        5.4760513870   -0.8841507626    5.4929633970
C        3.2846027714   -0.0704099632    5.2698804558
C        2.3058437551   -2.2425657802    2.1272945669
C        1.8877840348   -0.4438198238    5.1036605308
C        3.4148170277   -1.7157629593    2.6527061815
C        3.9683386092   -2.1164494970    3.9928050867
N        0.9980406122    0.4696131650    5.3099073935
N        4.2813718137   -0.9112929071    4.8312842016
O       -0.2644998099   -0.0277225458    5.1925217847
H        5.3593023358    2.4041709008    6.2800554565
H        6.8416323819    0.3816189411    6.5551778332
H        2.9501817408    2.0295258405    5.6330892338
H        6.1446749033   -1.7246530641    5.3484221550
H        1.9738163191   -1.9700143517    1.1299750271
H        1.7031468927   -2.9758512175    2.6602257496
H        1.5938253805   -1.4654667892    4.8781548743
H        4.0059715184   -0.9950895985    2.0896464544
H        3.2956129869   -2.7845376027    4.5356735097
H        4.9189443032   -2.6390709306    3.8659755417
H       -0.8479231464    0.7347181311    5.3674683730
23   
Generated by ForceBalance from scan.xyz: Frame 10 of 11
C        5.0240667007    1.4069878464    5.9063691432
C        5.8095229100    0.2584529784    6.1777109578
C        3.7243488214    1.2627102880    5.3961885180
C        5.4246997757   -0.9449755258    5.5981068346
C        3.2989162896   -0.0737561505    5.2558737545
C        2.2885643692   -2.2138271298    2.1251352601
C        1.9139985638   -0.4774108897    5.1257947717
C        3.4049729544   -1.6790204803    2.6263802131
C        4.0029485842   -2.0898317881    3.9436183544
N        1.0142754451    0.4236708698    5.3607264040
N        4.3150765467   -0.8917207560    4.7912893479
O       -0.2399072773   -0.0936993817    5.2906475785
H        5.4076785435    2.3917798086    6.1566634347
H        6.7287122333    0.3231282876    6.7485774902
H        3.0059002742    2.0743060418    5.3949644734
H        6.0635426975   -1.8179700836    5.5239943310
H        1.9236026977   -1.9314640665    1.1421342710
H        1.7129534210   -2.9649100703    2.6632953572
H        1.6328442730   -1.5069709880    4.9202582973
H        3.9690808329   -0.9420740536    2.0568077619
H        3.3630968447   -2.7887196092    4.4887621432
H        4.9651413230   -2.5819885071    3.7798598750
H       -0.8311978458    0.6574077369    5.4893489223
23   
Generated by ForceBalance from scan.xyz: Frame 11 of 11
C        5.0304170787    1.3865619634    5.8155430498
C        5.7263552301    0.2152172225    6.2456951313
C        3.7533799373    1.2886342776    5.2007989650
C        5.3485774843   -1.0119045945    5.6880986223
C        3.3163774531   -0.0504793318    5.2198965078
C        2.2471254126   -2.1710245529    2.1321993550
C        1.9453648108   -0.4883919792    5.1551205227
C        3.3699692717   -1.6232035307    2.6045752579
C        4.0229569518   -2.0483503333    3.8898926646
N        1.0371104010    0.4111123089    5.3855575002
N        4.3523407466   -0.8615773100    4.7477834472
O       -0.2051286641   -0.1272525532    5.3917102412
H        5.4524987612    2.3617349430    6.0416520897
H        6.5760071977    0.2868159396    6.9146675499
H        3.0735941571    2.1290290927    5.1183028054
H        5.9500649603   -1.9146773338    5.6852129937
H        1.8407363894   -1.8763717454    1.1692297157
H        1.7079024424   -2.9459943103    2.6742341708
H        1.6774505709   -1.5329155044    5.0156547285
H        3.8969687136   -0.8621882713    2.0311122708
H        3.4176960893   -2.7756280242    4.4389502148
H        4.9901749723   -2.5150592109    3.6805121797
H       -0.8031192803    0.6209588771    5.5844952750
