25   

C        0.0068803408   -0.0810819975    1.3459008525
C        1.6315915788   -0.6648274863    2.9781618795
C       -0.8535718908   -1.0031497138    1.9414223605
C        1.2903646388    0.0991544980    1.8649608425
C        0.7114609154   -1.5718246695    3.5098646407
C        2.3068155728    1.0640187604    1.3402247223
C        2.8336459559    4.1089757331    0.8928315188
C        2.3050045515   -2.4958920487    5.2195317008
C        2.6594766745    2.9351757196   -0.0658273743
N       -0.5059795611   -1.7384553973    3.0068044238
N        0.9822360731   -2.3719280069    4.5945044206
O        3.4815459134    1.0179538662    1.6971550444
O        1.7633965729    1.9602501259    0.4871598488
H       -0.3312174059    0.4860000741    0.4874228737
H        2.6076863930   -0.5615602003    3.4313667714
H       -1.8459644726   -1.1317050150    1.5250635566
H        1.8632492264    4.5666934829    1.1069457398
H        3.2856278241    3.7729916104    1.8309996034
H        3.4869403344    4.8621234040    0.4427674565
H        3.0576325909   -2.7700250517    4.4726686118
H        2.2829549917   -3.2792427701    5.9837900321
H        2.5914539597   -1.5549730953    5.7006518835
H        3.6356504773    2.4913430349   -0.2915583455
H        2.2423412959    3.3015892689   -1.0090685358
H        0.2079576436   -2.9812744861    4.8332252840
25   

C       -0.0024658245   -0.1855624312    1.2506520493
C        1.6132868913   -0.6612449422    2.9260970329
C       -0.8582974760   -1.0839518276    1.8878658259
C        1.2749854004    0.0322566773    1.7672048216
C        0.6986060225   -1.5484912720    3.4987577051
C        2.2751099011    0.9929847864    1.2060392413
C        2.9399153592    4.0421274477    1.0446187159
C        2.2868282126   -2.3591709300    5.2692585542
C        2.5523383666    3.0061494466   -0.0058420165
N       -0.5119844649   -1.7569809377    2.9943522052
N        0.9676015835   -2.2826222227    4.6294308251
O        3.4802312061    0.8495040186    1.3947143506
O        1.6782889778    2.0174135929    0.5575825281
H       -0.3372310292    0.3365515734    0.3628707361
H        2.5846056946   -0.5170503841    3.3784085887
H       -1.8460848637   -1.2447339480    1.4717607046
H        2.0430504303    4.5190938471    1.4509954910
H        3.4953667916    3.5702026452    1.8607344318
H        3.5734862219    4.8104845157    0.5920578277
H        3.0481919941   -2.6626603568    4.5428804612
H        2.2675930877   -3.1024403042    6.0726284710
H        2.5590272944   -1.3915323781    5.7033339772
H        3.4543457494    2.5440476647   -0.4226655265
H        2.0328631143    3.5071432271   -0.8287204003
H        0.1986080361   -2.8882618728    4.8934230214
25   

C       -0.0021574526   -0.2886243159    1.1555713476
C        1.6014939278   -0.6426243889    2.8713682775
C       -0.8464502075   -1.1728791686    1.8272961786
C        1.2641710229   -0.0203196030    1.6729261234
C        0.6994937808   -1.5202530249    3.4779181726
C        2.2388730825    0.9462395074    1.0763455470
C        3.0669148116    3.9589600603    1.1817646881
C        2.2831566354   -2.2060961312    5.3040832089
C        2.4691805834    3.0817327965    0.0863136732
N       -0.4994291519   -1.7818364734    2.9702526249
N        0.9696523939   -2.1883037874    4.6485063485
O        3.4468735854    0.7278403944    1.0820502772
O        1.6224066748    2.0714178149    0.6528364361
H       -0.3360476529    0.1858790649    0.2412526811
H        2.5641438880   -0.4500675255    3.3239280751
H       -1.8257677624   -1.3751240026    1.4092656321
H        2.2688945936    4.4218877105    1.7698593706
H        3.7012960210    3.3634980331    1.8452632337
H        3.6775527375    4.7480524868    0.7333698931
H        3.0586912481   -2.5265619393    4.6003435149
H        2.2710101440   -2.9113182306    6.1411925800
H        2.5298112745   -1.2135216257    5.6949403999
H        3.2718565034    2.6343155558   -0.5107223581
H        1.8715169329    3.7052998802   -0.5859652302
H        0.2112009156   -2.7980133516    4.9329656614
25   

C       -0.0108766040   -0.4012210942    1.0665663140
C        1.5751150576   -0.6201675352    2.8195098734
C       -0.8342052332   -1.2852233197    1.7643779911
C        1.2360438471   -0.0650175702    1.5894988981
C        0.6954027418   -1.5024030705    3.4516321838
C        2.1794534535    0.9113924770    0.9554244961
C        3.2269090825    3.8390058133    1.2785002906
C        2.2733128478   -2.0506827337    5.3287292458
C        2.4096026104    3.1389521560    0.1974171464
N       -0.4847646902   -1.8299565026    2.9385772465
N        0.9702889382   -2.1075721782    4.6548508442
O        3.3555588357    0.6294488817    0.7488127422
O        1.5883533516    2.1112718599    0.7700226404
H       -0.3455952278    0.0202953457    0.1270936935
H        2.5231796597   -0.3721135341    3.2752119569
H       -1.7984977714   -1.5414218869    1.3410377798
H        2.5618647093    4.2652766895    2.0354720128
H        3.9103513842    3.1325185424    1.7591344856
H        3.8172716021    4.6453121499    0.8335867093
H        3.0707693916   -2.3701771729    4.6494772415
H        2.2739134475   -2.7219657564    6.1933860255
H        2.4775439849   -1.0348582079    5.6825474117
H        3.0789783809    2.7286254070   -0.5671040216
H        1.7631467208    3.8724661052   -0.2945861858
H        0.2299924067   -2.7324866388    4.9539138898
25   

C       -0.0356938718   -0.5032009897    0.9955174769
C        1.5073228748   -0.5633423129    2.7973350023
C       -0.8241107107   -1.4123553834    1.7013169699
C        1.1693194218   -0.0679607045    1.5422480382
C        0.6649951432   -1.4768930869    3.4361058841
C        2.0741851249    0.9292091628    0.8797495816
C        3.3788903078    3.7274220681    1.3408464270
C        2.2236984634   -1.8757482205    5.3663334089
C        2.3405057390    3.2165352787    0.3469476767
N       -0.4778140008   -1.8933543933    2.9038163500
N        0.9426223920   -2.0258331780    4.6653641723
O        3.1685431104    0.6076392696    0.4290688262
O        1.5506166020    2.1719013569    0.9327287296
H       -0.3643227509   -0.1413054361    0.0295008802
H        2.4256171618   -0.2441969950    3.2687631074
H       -1.7565208931   -1.7442418592    1.2595223275
H        2.8849390955    4.0903913158    2.2470822223
H        4.0774148525    2.9289801969    1.6087994569
H        3.9460457140    4.5497558923    0.8950808270
H        3.0545072613   -2.1631922158    4.7132375072
H        2.2434431145   -2.5255031401    6.2470687791
H        2.3591466448   -0.8415428824    5.6992603323
H        2.8385915815    2.8697690662   -0.5655016177
H        1.6787586143    4.0412737033    0.0642388065
H        0.2336721071   -2.6863595357    4.9640318566
25   

C       -0.0350449946   -0.6214214444    0.9241987115
C        1.4465039748   -0.5115178132    2.7729245118
C       -0.7698953099   -1.5754854070    1.6283452640
C        1.1049630317   -0.0657313930    1.5003941698
C        0.6611542503   -1.4765358159    3.4088659265
C        1.9627876354    0.9576757738    0.8134414703
C        3.5371200580    3.5983220427    1.3240245051
C        2.1919554692   -1.7150844778    5.3875785090
C        2.2984089612    3.2756364246    0.4941289958
N       -0.4269578404   -1.9963439178    2.8539831714
N        0.9459303722   -1.9770110800    4.6570298759
O        2.9035927680    0.6344003572    0.0965405396
O        1.5505995361    2.2105863176    1.0979212205
H       -0.3526544310   -0.3205580931   -0.0661850450
H        2.3223346062   -0.1116955276    3.2627780747
H       -1.6539526582   -1.9970875568    1.1642113697
H        3.2462137843    3.8705998662    2.3429880246
H        4.2081022055    2.7347832865    1.3614496789
H        4.0761957669    4.4377803693    0.8753576280
H        3.0600257695   -1.9451461612    4.7607418283
H        2.2397518817   -2.3483470483    6.2791916257
H        2.2360797544   -0.6685983686    5.7064261321
H        2.5930455098    3.0201969132   -0.5299692556
H        1.6622881408    4.1646209524    0.4385936974
H        0.2837517868   -2.6871740271    4.9492756420
25   

C       -0.0277070246   -0.7187293797    0.8644961610
C        1.3754249784   -0.4491834931    2.7559473177
C       -0.6980840987   -1.7240514405    1.5612431390
C        1.0313365455   -0.0455824336    1.4697048514
C        0.6585230984   -1.4712848798    3.3836937197
C        1.8358574251    1.0114430516    0.7719612644
C        3.6636305178    3.4768746544    1.2804859815
C        2.1440299173   -1.5498632988    5.4095516748
C        2.2765735253    3.3321219195    0.6618514993
N       -0.3613864261   -2.0930081059    2.8050979786
N        0.9493015756   -1.9303832876    4.6462899527
O        2.5741002026    0.7392423823   -0.1686603907
O        1.5694971188    2.2396673084    1.2656115009
H       -0.3291970419   -0.4701628097   -0.1454339615
H        2.1987158807    0.0306110453    3.2646742521
H       -1.5219944833   -2.2331018832    1.0746530195
H        3.5791403876    3.6306265171    2.3604483335
H        4.2619960413    2.5803347769    1.0918411476
H        4.1782498015    4.3366103113    0.8416339901
H        3.0479776861   -1.7095389963    4.8122547571
H        2.2201210355   -2.1656047144    6.3114180423
H        2.0855134903   -0.4998112276    5.7140203195
H        2.3646624649    3.1958454799   -0.4218607705
H        1.7105531823    4.2537309480    0.8299849337
H        0.3430648142   -2.6922425686    4.9297276763
25   

C       -0.0086039386   -0.7793791791    0.8176301302
C        1.3109634356   -0.3814774233    2.7450938763
C       -0.6141701057   -1.8317468673    1.5037180512
C        0.9698053838   -0.0121552857    1.4471367435
C        0.6627041792   -1.4550453276    3.3615681108
C        1.7132082991    1.0875839118    0.7530705716
C        3.7586082089    3.3800028341    1.2212349167
C        2.0880058626   -1.3943869755    5.4311553833
C        2.2811258547    3.3824325282    0.8405215832
N       -0.2854764765   -2.1625300624    2.7602713807
N        0.9554111872   -1.8820966940    4.6349147293
O        2.2447581880    0.9101320303   -0.3381047950
O        1.6120859241    2.2560960688    1.4249874581
H       -0.2952027593   -0.5667086853   -0.2050205227
H        2.0782801079    0.1663194413    3.2725205641
H       -1.3769188630   -2.4118758650    0.9973584569
H        3.8661702250    3.3978177321    2.3099137570
H        4.2537048164    2.4873173303    0.8269291654
H        4.2513314381    4.2631544313    0.8043232833
H        3.0214124524   -1.4837632085    4.8653603746
H        2.1853586913   -1.9920332446    6.3430941103
H        1.9317159166   -0.3498361526    5.7196447357
H        2.1775475705    3.3824145504   -0.2503457800
H        1.8158671672    4.3006294578    1.2125992349
H        0.4052318336   -2.6887370328    4.9086562668
25   

C        0.0460176125   -0.8233056884    0.7748350047
C        1.2668838117   -0.3354897300    2.7450069431
C       -0.5027223441   -1.9199050884    1.4385713489
C        0.9446829862    0.0132579000    1.4358329513
C        0.6795990924   -1.4563598771    3.3381340862
C        1.6187093045    1.1674762983    0.7636076975
C        3.8305562641    3.3160052057    1.1465346845
C        2.0219017759   -1.2943027764    5.4574008421
C        2.3131557967    3.4149347255    1.0209281604
N       -0.1925137843   -2.2301988721    2.7047363929
N        0.9601847850   -1.8654841342    4.6200812458
O        1.9595848685    1.1094872775   -0.4137392758
O        1.6882116498    2.2482142631    1.5742785240
H       -0.2229521287   -0.6282784095   -0.2563446079
H        1.9732484310    0.2634641197    3.3013938400
H       -1.2035795457   -2.5524609073    0.9062040681
H        4.1138354156    3.1958795126    2.1964896741
H        4.2069320447    2.4625365940    0.5743026964
H        4.2958794743    4.2266568398    0.7582974546
H        2.9803655634   -1.3145170047    4.9279836769
H        2.1281385557   -1.8823305100    6.3745801645
H        1.7775768573   -0.2640166008    5.7359034640
H        2.0345520720    3.5527574645   -0.0298391685
H        1.9639909033    4.2954426829    1.5693466126
H        0.4610904340   -2.7105694506    4.8750639696
25   

C        0.0996738528   -0.8761712247    0.7511834039
C        1.2213561849   -0.3218557174    2.7609736049
C       -0.3999546260   -2.0086550598    1.3924179545
C        0.9256943321    0.0121473110    1.4410200236
C        0.6867554366   -1.4808247425    3.3307469488
C        1.5266111330    1.2178166999    0.7911165458
C        3.8713518791    3.2486366627    1.0126191608
C        1.9345342523   -1.2390342322    5.5002676658
C        2.3601009368    3.4029720913    1.1550618402
N       -0.1120564181   -2.3057487560    2.6665214559
N        0.9475298996   -1.8771954967    4.6209402987
O        1.6811401792    1.2744422680   -0.4252512976
O        1.7815435498    2.2016743472    1.6846133256
H       -0.1533630228   -0.6918549984   -0.2861735852
H        1.8679911452    0.3132864393    3.3488677706
H       -1.0432733394   -2.6801133234    0.8356107044
H        4.3178616235    3.0083533755    1.9821306551
H        4.1091619198    2.4514066686    0.3017191841
H        4.3074238357    4.1823345241    0.6457511449
H        2.9134570860   -1.1974598209    5.0110837554
H        2.0399623255   -1.8191551390    6.4225588052
H        1.6131624863   -0.2266544347    5.7659260466
H        1.9190576066    3.6608068222    0.1856508292
H        2.1465158417    4.2289923774    1.8406472148
H        0.4929404108   -2.7523124655    4.8571036421
25   

C        0.1840437812   -0.9004589289    0.7300061052
C        1.1930840094   -0.3049847980    2.7862085373
C       -0.2740476234   -2.0666858045    1.3404059037
C        0.9360440605    0.0249057155    1.4567222080
C        0.7042530703   -1.4993529062    3.3237162092
C        1.4674248711    1.2804174288    0.8405157902
C        3.9019916009    3.2224377575    0.8634508163
C        1.8449788954   -1.2102390241    5.5461855685
C        2.4412600953    3.3950783254    1.2686289562
N       -0.0180671693   -2.3618532630    2.6212918652
N        0.9331525002   -1.8934628448    4.6207090319
O        1.4447072794    1.4499732394   -0.3752262048
O        1.9096351660    2.1599118889    1.7689637425
H       -0.0468803994   -0.7177244100   -0.3128778176
H        1.7742425937    0.3554337922    3.4130211477
H       -0.8584303462   -2.7657725687    0.7534384908
H        4.4907570320    2.8753021851    1.7177878203
H        3.9899737063    2.4962297541    0.0496030464
H        4.3081206259    4.1786191271    0.5209139652
H        2.8398594894   -1.1098106419    5.0996001442
H        1.9433480221   -1.7925677969    6.4678604331
H        1.4568180270   -0.2198227187    5.8053715137
H        1.8587476442    3.7596020843    0.4150485023
H        2.3742815067    4.1522213458    2.0561508788
H        0.5191830062   -2.7950500226    4.8305063195
25   

C       -0.2165355233   -0.1450524081    1.1671078302
C        1.6037171909   -0.9779460576    2.4288019946
C       -1.0725457354   -0.6644295330    2.1364777753
C        1.1663382290   -0.2939569980    1.2958189243
C        0.6809504651   -1.4630802378    3.3603947703
C        2.1228154593    0.2448069853    0.2788622929
C        4.7248571184    1.9348506019   -0.0428117312
C        2.4251310307   -2.2690245199    4.9830512814
C        4.4007574984    0.4708907514   -0.3241104525
N       -0.6293717513   -1.3147499252    3.2197488515
N        1.0438404606   -2.1312368662    4.5057536608
O        1.7210500471    0.8448500187   -0.7141557021
O        3.4125524201   -0.0123886527    0.5971802610
H       -0.6329993028    0.3739708954    0.3117972766
H        2.6571957807   -1.1409014791    2.6026438918
H       -2.1411791187   -0.5352737074    2.0095908864
H        3.8371902278    2.5579822668   -0.1882739290
H        5.0786443998    2.0507689729    0.9859763458
H        5.5068885644    2.2799062872   -0.7254107984
H        2.9026954056   -1.2867452196    5.0628281339
H        3.0034616151   -2.9048173270    4.3047650375
H        2.4305745357   -2.7313504682    5.9752649743
H        5.3107930942   -0.1263546119   -0.2097903766
H        4.0639253044    0.3569644131   -1.3606516603
H        0.2438689295   -2.3944705161    5.0705497824
25   

C       -0.2422358602   -0.2203955506    1.1243832973
C        1.6037034535   -0.9329982818    2.4227966294
C       -1.0812660441   -0.7914958958    2.0795590357
C        1.1442244831   -0.2867055744    1.2766654845
C        0.6966879042   -1.4741057768    3.3387404016
C        2.0854181185    0.3288016418    0.2899209015
C        4.8122249749    1.8146569879    0.0504839937
C        2.4582191266   -2.1555862963    4.9990817303
C        4.3351832244    0.4497364116   -0.4364518290
N       -0.6176372871   -1.4113989998    3.1723055188
N        1.0801138958   -2.1100896953    4.4956311032
O        1.6814431507    1.0949064405   -0.5802370148
O        3.3595006478   -0.0920785284    0.4652459360
H       -0.6738258557    0.2762344111    0.2633294656
H        2.6627656188   -1.0195227649    2.6169428264
H       -2.1534812361   -0.7281616296    1.9342993002
H        3.9808821945    2.5259728533    0.0696008665
H        5.2328936855    1.7289978136    1.0568351365
H        5.5837591408    2.2003695438   -0.6222091973
H        2.8697058116   -1.1440362036    5.0812747846
H        3.0890241807   -2.7561540354    4.3356279827
H        2.4749520148   -2.6112595364    5.9942447368
H        5.1891853895   -0.2332111949   -0.4834228132
H        3.9308300996    0.5369321788   -1.4511891255
H        0.2883032666   -2.4214247566    5.0473125232
25   

C       -0.2565974406   -0.2887257530    1.0772263614
C        1.5968584167   -0.8835585500    2.4247445353
C       -1.0818249436   -0.9130461252    2.0113278744
C        1.1261735148   -0.2730978143    1.2641520783
C        0.7033468944   -1.4821346493    3.3174986153
C        2.0555403988    0.4204452873    0.3194364472
C        4.8863823916    1.6903010816    0.1066712225
C        2.4622124794   -2.0450780422    5.0239055161
C        4.2563362477    0.4658154414   -0.5503334978
N       -0.6076449791   -1.5042468692    3.1159271087
N        1.0970248506   -2.0891722930    4.4863601370
O        1.6649786986    1.3332110047   -0.4023310387
O        3.2908826578   -0.1320214487    0.3264492013
H       -0.6947608055    0.1875264943    0.2081435053
H        2.6553794698   -0.8941105336    2.6405726843
H       -2.1520945287   -0.9152593314    1.8402498893
H        4.1272451386    2.4548822654    0.2980736737
H        5.3571510968    1.4087178157    1.0533225250
H        5.6485012921    2.1152827216   -0.5529555850
H        2.8061600077   -1.0090884159    5.1119048785
H        3.1463651669   -2.6059083825    4.3787921533
H        2.4831984023   -2.4959617378    6.0211714412
H        5.0387784929   -0.2684562614   -0.7661675115
H        3.8013406186    0.7487406791   -1.5062037444
H        0.3132095558   -2.4496939686    5.0191931419
25   

C       -0.2467571290   -0.3616858965    1.0403240738
C        1.5955274571   -0.8465957482    2.4477772817
C       -1.0606360415   -1.0444663168    1.9434213782
C        1.1245164764   -0.2642390156    1.2737204557
C        0.7133949976   -1.5072009351    3.3071559331
C        2.0434978861    0.5074387316    0.3801788917
C        4.9563319466    1.5598118152    0.1289554152
C        2.4444126803   -1.9547948579    5.0742918884
C        4.1695988109    0.5163247916   -0.6586039956
N       -0.5860545003   -1.6126766068    3.0603712574
N        1.1063902090   -2.0932365272    4.4868251634
O        1.6822487914    1.5477843358   -0.1610090561
O        3.2170185075   -0.1383438967    0.1910952182
H       -0.6842384155    0.0974887165    0.1619841791
H        2.6460244278   -0.7859349294    2.6928082254
H       -2.1226519460   -1.1121870416    1.7378029017
H        4.2875067026    2.3408571730    0.5033313636
H        5.4643965886    1.0877718195    0.9752007610
H        5.7064488865    2.0253217766   -0.5169281995
H        2.7137684550   -0.8975847707    5.1696591557
H        3.1885819042   -2.4694710402    4.4577966923
H        2.4587711722   -2.4003741344    6.0740613201
H        4.8625965729   -0.2329172962   -1.0540328532
H        3.6766500227    0.9897387244   -1.5151132631
H        0.3297829540   -2.5049486016    4.9924487807
25   

C       -0.2263034747   -0.4371276634    1.0142892443
C        1.5843951871   -0.8080383827    2.4970110842
C       -1.0283564209   -1.1828075013    1.8777596972
C        1.1230993140   -0.2501357501    1.3081342066
C        0.7145782718   -1.5356805607    3.3135765957
C        2.0296696126    0.5950169907    0.4669097161
C        4.9956225805    1.4483950073    0.1025637839
C        2.3944690007   -1.8741778376    5.1525318732
C        4.0514175953    0.6176702254   -0.7613104019
N       -0.5629859887   -1.7279780577    3.0102805586
N        1.0973777571   -2.1042948407    4.5050492890
O        1.7184716837    1.7353830563    0.1391611387
O        3.1182500865   -0.0962882479    0.0616781194
H       -0.6566535125    0.0008428803    0.1220098616
H        2.6174548901   -0.6759086591    2.7840028100
H       -2.0737623163   -1.3208391286    1.6271423664
H        4.4363288866    2.2038116952    0.6629399036
H        5.5279614783    0.8016013184    0.8063974272
H        5.7279563599    1.9573681306   -0.5308253120
H        2.5843335199   -0.8010172157    5.2604110400
H        3.1999982505   -2.3331751266    4.5701372336
H        2.3950305732   -2.3210771251    6.1518173784
H        4.6358283443   -0.1048362890   -1.3396194844
H        3.5333145245    1.2662360000   -1.4766086945
H        0.3298982609   -2.5714485953    4.9752011209
25   

C       -0.1719767160   -0.4912874427    0.9950890290
C        1.5738987443   -0.7582040912    2.5761807842
C       -0.9692342631   -1.2985992493    1.8063565779
C        1.1409319227   -0.2152010615    1.3706004875
C        0.7103087931   -1.5513324456    3.3363599558
C        2.0469643606    0.6835808577    0.5815031330
C        5.0414053938    1.3253279628    0.0344901288
C        2.3014366186   -1.7958943621    5.2665003019
C        3.9361578323    0.7405536381   -0.8396120031
N       -0.5328161685   -1.8239381841    2.9597133199
N        1.0641609587   -2.1095886412    4.5416001864
O        1.8398861297    1.8893530363    0.4972628925
O        3.0159077256   -0.0191290977   -0.0433951811
H       -0.5786393265   -0.0778849523    0.0805593785
H        2.5788848896   -0.5626089363    2.9205069618
H       -1.9866043896   -1.5050759104    1.4948183340
H        4.6214961317    2.0203539562    0.7679934103
H        5.5678296830    0.5235720561    0.5609519230
H        5.7588222203    1.8684080702   -0.5875601476
H        2.4103959173   -0.7130772231    5.3890425154
H        3.1698912376   -2.1944397287    4.7320084248
H        2.2731441510   -2.2489360217    6.2626143799
H        4.3829139882    0.0791964690   -1.5886291546
H        3.4228684411    1.5448832415   -1.3784544485
H        0.3039307457   -2.6309117666    4.9641664759
25   

C       -0.0790564617   -0.5503169134    0.9641136330
C        1.5730880981   -0.7082871741    2.6583183946
C       -0.8699695574   -1.4172286749    1.7184250261
C        1.1784032318   -0.1785902047    1.4342456214
C        0.7183616531   -1.5652970153    3.3564815022
C        2.0927780181    0.7569022311    0.6967483108
C        5.0819673164    1.1859799972   -0.0732450945
C        2.1960783603   -1.7222177568    5.3831108412
C        3.8352675778    0.8762054778   -0.8960676656
N       -0.4761771000   -1.9183924233    2.8976957379
N        1.0324325763   -2.1123875455    4.5777653941
O        2.0508303590    1.9700487300    0.8701980815
O        2.9135645128    0.0826175792   -0.1352794962
H       -0.4475238828   -0.1692969901    0.0200214410
H        2.5393152949   -0.4500843077    3.0665223465
H       -1.8456146429   -1.6953706510    1.3370068582
H        4.8208154797    1.7792809566    0.8082935517
H        5.5598821759    0.2561259267    0.2492713164
H        5.7932756210    1.7564801838   -0.6775339146
H        2.2219184496   -0.6358260406    5.5190689553
H        3.1224720315   -2.0545460628    4.9034278614
H        2.1355170780   -2.1867480114    6.3724660746
H        4.1259012055    0.3167759370   -1.7908291416
H        3.3695010899    1.8097440006   -1.2313358307
H        0.2840805186   -2.6880685552    4.9476035125
25   

C       -0.1916876252    0.4776497696    1.9952031965
C        1.5950536691   -0.5203387440    3.1958135702
C       -0.9808968480   -0.6161657700    2.3511026507
C        1.1296548116    0.5444761474    2.4313202580
C        0.7421270121   -1.5840783803    3.5020307447
C        2.0642035502    1.6652146493    2.0816458433
C        2.5879702456    3.8704187463   -0.0467226838
C        2.5119690635   -2.9334692831    4.6712727275
C        3.3551893522    2.6098431968    0.3406598303
N       -0.5205165722   -1.6322345798    3.0943513359
N        1.1324113340   -2.6751360068    4.2414882936
O        2.4469761657    2.4727182617    2.9214852187
O        2.4514899346    1.5905213845    0.7904744583
H       -0.6101069015    1.2678447471    1.3847809480
H        2.6149118109   -0.5169050578    3.5525549506
H       -2.0089544580   -0.6484486467    2.0093744349
H        1.8570319083    3.6403731470   -0.8277009563
H        2.0660315441    4.2827884881    0.8221665996
H        3.2820789268    4.6261385366   -0.4257488832
H        3.1864685332   -2.9405900951    3.8085531872
H        2.5720118228   -3.9120109969    5.1582291014
H        2.8395576846   -2.1730322569    5.3876758120
H        4.0978489607    2.8479464375    1.1104035191
H        3.8987437535    2.2377224261   -0.5334525936
H        0.3886907043   -3.3544843129    4.3572792823
25   

C       -0.1111930700    0.4083997836    1.8778434088
C        1.6169818908   -0.5496494558    3.1933458803
C       -0.9240174454   -0.6627585249    2.2492682449
C        1.1903809309    0.4867981722    2.3689902084
C        0.7426907465   -1.5923740163    3.5105851161
C        2.1632637171    1.5647232543    1.9994691637
C        2.5815915969    3.9770380961    0.0847446154
C        2.4550552071   -2.9060296728    4.7990642337
C        3.2614319278    2.6150107387    0.1870972659
N       -0.5035435216   -1.6478841954    3.0554510370
N        1.0943891933   -2.6548387590    4.3087344837
O        2.7714242363    2.2049230539    2.8511756415
O        2.3353237666    1.6271883076    0.6609239646
H       -0.4944283660    1.1703748084    1.2109107247
H        2.6231140685   -0.5394606680    3.5878620358
H       -1.9368439169   -0.7040794009    1.8656115252
H        1.7171524307    3.9163648227   -0.5832360036
H        2.2488459520    4.3135682699    1.0714090778
H        3.2841739755    4.7140632925   -0.3149110202
H        3.1607948055   -2.9516204721    3.9628959575
H        2.4889535273   -3.8651964406    5.3254745853
H        2.7626636299   -2.1203960255    5.4969061788
H        4.1366834540    2.6840690146    0.8427446153
H        3.6184711055    2.3166162172   -0.8035976272
H        0.3413651253   -3.3241018161    4.4226879425
25   

C       -0.0554134018    0.3215690887    1.7613408042
C        1.6311893514   -0.5846201496    3.1663688020
C       -0.8890187787   -0.7197595512    2.1693978366
C        1.2362900203    0.4113282767    2.2778993148
C        0.7371651310   -1.5994208290    3.5170907980
C        2.2366573867    1.4520709803    1.8829800443
C        2.5848938794    4.0588588894    0.2269724288
C        2.4034684467   -2.8610469034    4.9131233889
C        3.1463935043    2.6503706935    0.0571416375
N       -0.4988868309   -1.6652718781    3.0360518168
N        1.0574943128   -2.6221775484    4.3778976885
O        3.0168975280    1.9369441154    2.6971431922
O        2.2153311514    1.6766181279    0.5502564483
H       -0.4149826410    1.0511110643    1.0464535424
H        2.6280926520   -0.5665121807    3.5840414742
H       -1.8931971310   -0.7705757729    1.7647241431
H        1.6291453033    4.1484060213   -0.2980378401
H        2.4336630819    4.2852346902    1.2868672581
H        3.2843495450    4.7903986198   -0.1879445154
H        3.1279688491   -2.9580098099    4.0976232654
H        2.4141318298   -3.7912677905    5.4900289048
H        2.7038215141   -2.0427179460    5.5756700124
H        4.1116910793    2.5700448739    0.5694526905
H        3.3244829479    2.4607061317   -1.0060104937
H        0.2945708928   -3.2769901481    4.5084203910
25   

C       -0.0131327137    0.2326633946    1.6523120494
C        1.6473094957   -0.6079978665    3.1289485267
C       -0.8614874601   -0.7766175460    2.1073989403
C        1.2752272714    0.3374285869    2.1769973632
C        0.7388005447   -1.5931723456    3.5240681669
C        2.2928626729    1.3492863493    1.7544323251
C        2.6183560788    4.1246357604    0.3855720595
C        2.3739517307   -2.7885811302    5.0121135319
C        3.0333384246    2.7164442368   -0.0299081246
N       -0.4912666806   -1.6754540216    3.0304739208
N        1.0371829097   -2.5675279076    4.4467659464
O        3.2076253256    1.6910241726    2.4992489635
O        2.1031844690    1.7486963904    0.4769495955
H       -0.3610632829    0.9256433338    0.8963125192
H        2.6375901756   -0.5785955429    3.5617671625
H       -1.8615386965   -0.8402601281    1.6944012797
H        1.6097258930    4.3421674628    0.0216688025
H        2.6344249671    4.2223909161    1.4753686772
H        3.3113946599    4.8567756382   -0.0389496763
H        3.1081069167   -2.9356607551    4.2128955648
H        2.3686470848   -3.6862547733    5.6385194160
H        2.6732716044   -1.9381199227    5.6333863689
H        4.0505192257    2.5092628651    0.3210333911
H        3.0463503887    2.6538568553   -1.1225591821
H        0.2666842273   -3.2077188536    4.6026591294
25   

C        0.0079498282    0.1322046093    1.5457535598
C        1.6517749399   -0.6378501857    3.0786437968
C       -0.8513052061   -0.8437445825    2.0501065896
C        1.2967201392    0.2531015914    2.0689075051
C        0.7322685262   -1.5920601095    3.5215158656
C        2.3240808932    1.2414399867    1.6137058883
C        2.6697279686    4.1512835487    0.5571095102
C        2.3446276292   -2.7108658449    5.0920685903
C        2.9106865560    2.7865932711   -0.0810913642
N       -0.4945379722   -1.6929837826    3.0237365067
N        1.0148357746   -2.5135136140    4.5018487157
O        3.3513451357    1.4436901510    2.2565442770
O        1.9878642539    1.8184027493    0.4385311760
H       -0.3350653936    0.7865095519    0.7538592084
H        2.6373281223   -0.5952202782    3.5210118567
H       -1.8497048662   -0.9213359919    1.6354958055
H        1.6402481226    4.4745281358    0.3761509509
H        2.8459028029    4.1055785593    1.6361425943
H        3.3517694117    4.8892377936    0.1249134587
H        3.0850373660   -2.9097302670    4.3100057798
H        2.3265290207   -3.5701853821    5.7699051087
H        2.6448394971   -1.8276945374    5.6654404526
H        3.9476341486    2.4748135730    0.0871467470
H        2.7657420676    2.8659670298   -1.1630583786
H        0.2382433233   -3.1383627748    4.6869143805
25   

C        0.0014647346    0.0232530057    1.4471723261
C        1.6331767285   -0.6590573192    3.0337092134
C       -0.8620722521   -0.9224977780    1.9993762906
C        1.2886617472    0.1698137672    1.9688291751
C        0.7095277044   -1.5862156139    3.5229892376
C        2.3164778368    1.1413422201    1.4788156812
C        2.7401601031    4.1390549844    0.7286299307
C        2.3081457214   -2.6137531374    5.1680694952
C        2.7782792828    2.8526384244   -0.0906054161
N       -0.5130962439   -1.7157040176    3.0217504851
N        0.9826265817   -2.4480323659    4.5587150775
O        3.4312454081    1.2111947268    1.9909388940
O        1.8634430729    1.8860432065    0.4460764992
H       -0.3383535997    0.6338910480    0.6198220442
H        2.6136319871   -0.5916102443    3.4841739215
H       -1.8578819307   -1.0221889402    1.5832611557
H        1.7247787337    4.5463130025    0.7420795651
H        3.0625321609    3.9477227125    1.7566643145
H        3.4115372999    4.8809485361    0.2865762453
H        3.0537017890   -2.8562324894    4.4033844977
H        2.2842893497   -3.4341822585    5.8923202648
H        2.6055669744   -1.7004757694    5.6937467979
H        3.8002506352    2.4580222343   -0.1163859060
H        2.4892495040    3.0759388073   -1.1223791832
H        0.2046077738   -3.0621324384    4.7716544627
