29   

C        1.8452232724   -3.6859424901   -0.9187652273
C        0.8848364349   -3.5530002049    0.0701337100
C        5.3029958904    1.3381229781    0.0192985815
C        5.9503956280    1.1948141371   -1.1981195735
C        2.7224258148   -2.6349551474   -1.1765843872
C        0.7894938763   -2.3548797488    0.7718727194
C        4.2202165536    0.5032626795    0.2715061250
C        5.5085082696    0.2260835364   -2.0997744674
C        2.6735102619   -1.4065386280   -0.4628430914
C        1.6469081890   -1.2660116751    0.5149330792
C        3.7831421112   -0.4293819808   -0.6924102924
C        1.1423130905    1.1626295238    0.3374939521
C        0.8134455791   -0.0250762223    2.5284657669
N        4.4623654186   -0.5743732244   -1.8512594762
N        1.3596323275   -0.0422222293    1.1606563006
H        1.9255407239   -4.6088069910   -1.4819010888
H        0.2020437530   -4.3679118067    0.2818321210
H        5.6366663127    2.0624684118    0.7550542115
H        6.8020038958    1.8136565841   -1.4506891549
H        3.4797252614   -2.8086429833   -1.9328698368
H       -0.0035354816   -2.2640887887    1.5010487862
H        3.7372699538    0.5600036962    1.2359228130
H        6.0337553542    0.1127453303   -3.0408761148
H        1.4035716874    0.9801925632   -0.7093324568
H        1.7522276436    1.9917918848    0.7082921142
H        0.0872194221    1.4515872691    0.3702713221
H        1.0861652689    0.9080744800    3.0308977870
H        1.2252086577   -0.8526484461    3.1149298866
H       -0.2776320885   -0.1103897707    2.5037247744
29   

C        1.8976236978   -3.7418112866   -0.8424185307
C        0.8965257203   -3.5797020247    0.1043807161
C        5.3461013197    1.2351627974    0.1032203155
C        5.8501504398    1.2613566909   -1.1895325588
C        2.7821042741   -2.6957707352   -1.0971300997
C        0.7706769580   -2.3610931452    0.7696276396
C        4.3027267529    0.3543306124    0.3634790252
C        5.3070203959    0.4139197865   -2.1583256863
C        2.6941234735   -1.4565919458   -0.4191014052
C        1.6369080243   -1.2790541895    0.5145080442
C        3.7783665851   -0.4592762850   -0.6577745888
C        1.2515751555    1.1741087699    0.2981882000
C        0.7385737559    0.0136092091    2.4668576119
N        4.3001609627   -0.4334765302   -1.9010752518
N        1.3606837722   -0.0375518306    1.1330089644
H        1.9998399775   -4.6803250400   -1.3752896030
H        0.2066990448   -4.3896014799    0.3124815088
H        5.7543212045    1.8691149280    0.8834908656
H        6.6644285767    1.9239958421   -1.4539003278
H        3.5734383064   -2.8626984640   -1.8199682369
H       -0.0472889038   -2.2520619243    1.4680807534
H        3.8962794277    0.2792843417    1.3634585856
H        5.7173598138    0.4393672277   -3.1610136113
H        1.4709542565    0.9544859271   -0.7511008328
H        1.9463215772    1.9428252072    0.6490589983
H        0.2310741906    1.5669964526    0.3429041914
H        0.9866918529    0.9575504143    2.9619514311
H        1.1139773459   -0.8007225563    3.0947465303
H       -0.3497885902   -0.0681353861    2.3828659918
29   

C        1.9323777725   -3.8049250729   -0.7679772438
C        0.8973155624   -3.6078659203    0.1380806704
C        5.4024380799    1.1178169315    0.1568465668
C        5.7538770173    1.3157012935   -1.1719147073
C        2.8303327674   -2.7701030493   -1.0234772713
C        0.7522298697   -2.3679876861    0.7630143935
C        4.4013519158    0.1898625015    0.4187230941
C        5.1030867798    0.5900265447   -2.1741263163
C        2.7177184600   -1.5199625320   -0.3814660989
C        1.6331032205   -1.2986721885    0.5061115081
C        3.7813441371   -0.5063832564   -0.6318730151
C        1.3402396361    1.1654793866    0.2415849722
C        0.6977620748    0.0518293589    2.3999476741
N        4.1380335550   -0.3043151350   -1.9143957323
N        1.3701986962   -0.0390571719    1.0932340917
H        2.0462625644   -4.7590717953   -1.2697901975
H        0.1960647533   -4.4080575530    0.3455594603
H        5.8891518694    1.6618545701    0.9596626764
H        6.5276442792    2.0235355231   -1.4408012239
H        3.6454534429   -2.9395810842   -1.7189837940
H       -0.0872959115   -2.2340784252    1.4309358015
H        4.0853093708   -0.0099378134    1.4348402992
H        5.3904633805    0.7549000691   -3.2059381014
H        1.5196044662    0.9134763364   -0.8080591463
H        2.0979885321    1.8834943865    0.5682768963
H        0.3538948842    1.6364918207    0.2962231864
H        0.9386866572    1.0045317806    2.8817269862
H        1.0388054793   -0.7511551867    3.0611332196
H       -0.3874908265   -0.0187199971    2.2757047452
29   

C        1.9521187320   -3.8358071474   -0.6827135217
C        0.8841137277   -3.5979699610    0.1761819019
C        5.5059613562    0.9887176997    0.1974812687
C        5.6985271924    1.3633758960   -1.1261354711
C        2.8682999567   -2.8171749208   -0.9402863168
C        0.7262871854   -2.3357131770    0.7540142116
C        4.5333408805    0.0287053553    0.4511352959
C        4.9220548162    0.7770832205   -2.1306922310
C        2.7372984111   -1.5498919047   -0.3437834735
C        1.6264035381   -1.2835485427    0.4945676865
C        3.7936252875   -0.5290809385   -0.6023128492
C        1.4093180885    1.1837246480    0.1769342585
C        0.6682223349    0.1254377900    2.3322038664
N        3.9851715762   -0.1488208023   -1.8783368177
N        1.3749869132   -0.0066500252    1.0475494615
H        2.0744293407   -4.8074379235   -1.1476374080
H        0.1678892730   -4.3847227455    0.3839138494
H        6.0875960727    1.4268895710    1.0019175433
H        6.4417619614    2.1053173814   -1.3891542890
H        3.7055525385   -3.0062493859   -1.6034740130
H       -0.1341892523   -2.1717679461    1.3877686139
H        4.3247565443   -0.2994040926    1.4615737141
H        5.0829522715    1.0826801482   -3.1578816116
H        1.5346180460    0.9010265593   -0.8726694805
H        2.2278383671    1.8479483566    0.4686612785
H        0.4627006742    1.7278860173    0.2505616514
H        0.9116930747    1.0850628276    2.7987778012
H        0.9779008249   -0.6671412710    3.0208148900
H       -0.4141760281    0.0693566249    2.1793533663
29   

C        1.9991514129   -3.8552329676   -0.6173065806
C        0.8983973487   -3.5981278348    0.1942955017
C        5.6666834754    0.8111549048    0.1971944479
C        5.6939050848    1.3925562916   -1.0640869923
C        2.9155260937   -2.8370061398   -0.8771660598
C        0.7113022517   -2.3192673994    0.7259606009
C        4.6976418733   -0.1580435259    0.4294025575
C        4.7636760256    0.9938578640   -2.0292311647
C        2.7479762081   -1.5525159347   -0.3314225761
C        1.6123390347   -1.2690391655    0.4639839547
C        3.8007642451   -0.5217667704   -0.5846063487
C        1.3735859929    1.1850484306    0.0906190104
C        0.6378869391    0.1680098743    2.2684201035
N        3.8312553497    0.0582504442   -1.7972424269
N        1.3486094724    0.0160024150    0.9884329712
H        2.1456802264   -4.8411343534   -1.0436011446
H        0.1814220526   -4.3838818169    0.4032384355
H        6.3695526045    1.1015113318    0.9712149658
H        6.4252951125    2.1526033947   -1.3078842460
H        3.7775865376   -3.0387081061   -1.5035232081
H       -0.1688765627   -2.1410941337    1.3281632285
H        4.6138633385   -0.6417797817    1.3940970409
H        4.7959912790    1.4598596400   -3.0070748819
H        1.4187984665    0.8718118069   -0.9566787854
H        2.2334571924    1.8226578818    0.3146930467
H        0.4546593148    1.7675136990    0.2082166067
H        0.8758245831    1.1371365275    2.7179228894
H        0.9498867169   -0.6104786852    2.9718926738
H       -0.4438227775    0.1036420772    2.1142293218
29   

C        2.0277115521   -3.8399206226   -0.5268827558
C        0.8937516622   -3.5635986529    0.2308343302
C        5.8732923692    0.5715718308    0.1201009217
C        5.7549460764    1.3688908463   -1.0109119114
C        2.9431821891   -2.8220562311   -0.7921198095
C        0.6772198031   -2.2681606390    0.7079520689
C        4.8744631250   -0.3696669708    0.3415083736
C        4.6598669068    1.1994908005   -1.8636903489
C        2.7384016235   -1.5168157545   -0.3114322746
C        1.5784643829   -1.2201666268    0.4409067150
C        3.8010539589   -0.4901630182   -0.5520688742
C        1.2019756591    1.1923467245   -0.0190348198
C        0.6259404411    0.2381517699    2.2327676968
N        3.7004877330    0.2889410562   -1.6428202385
N        1.2929231681    0.0708944692    0.9317300653
H        2.2007945782   -4.8406453205   -0.9061327004
H        0.1766885199   -4.3482293808    0.4436867306
H        6.7087949461    0.6782241715    0.8042079165
H        6.4999940196    2.1203089612   -1.2395363708
H        3.8320682803   -3.0408688445   -1.3734631731
H       -0.2223960151   -2.0736302029    1.2756868844
H        4.9052936734   -1.0180958763    1.2075354739
H        4.5817338643    1.8296011281   -2.7418793231
H        1.2106400729    0.8287051729   -1.0509467050
H        2.0331031958    1.8878148675    0.1275987597
H        0.2577224237    1.7273696280    0.1208440071
H        0.8772593377    1.2136931877    2.6605174572
H        0.9627738673   -0.5309790823    2.9350547265
H       -0.4602110920    0.1687678632    2.1166399463
29   

C        2.0655836513   -3.8299075768   -0.4288452493
C        0.8907956213   -3.5332584110    0.2546272970
C        6.0386794171    0.3698760893   -0.0107284322
C        5.8141100813    1.3436557155   -0.9746672393
C        2.9872170824   -2.8155104661   -0.6864010839
C        0.6443294878   -2.2226330327    0.6703159105
C        5.0198560393   -0.5489546623    0.2140198700
C        4.6004175858    1.3608105211   -1.6681903059
C        2.7485589061   -1.4906342462   -0.2763564969
C        1.5531230807   -1.1799265895    0.4123991245
C        3.8190005471   -0.4725845785   -0.5076524980
C        0.9829090252    1.1656677688   -0.1352991511
C        0.6352856954    0.2978677111    2.1948572117
N        3.6235733801    0.4697050989   -1.4463316166
N        1.2369796103    0.1153469614    0.8648404071
H        2.2650689501   -4.8437161624   -0.7569871479
H        0.1677162090   -4.3142396183    0.4604448153
H        6.9693338473    0.3273422716    0.5456047219
H        6.5674443769    2.0889532600   -1.1959364093
H        3.9059803124   -3.0532483246   -1.2110617992
H       -0.2810139029   -2.0086971316    1.1879626163
H        5.1345152646   -1.3299432378    0.9544430784
H        4.4411158583    2.1253294791   -2.4195037264
H        1.0380500138    0.7588827149   -1.1497648524
H        1.7117031881    1.9746862654   -0.0327096821
H       -0.0247853376    1.5722429079   -0.0059973799
H        0.9103173837    1.2769712439    2.5990488560
H        1.0023412551   -0.4662073379    2.8874649053
H       -0.4553908876    0.2293128518    2.1331663633
29   

C        0.8204678649   -2.5556806367   -2.1783463057
C       -0.1010282346   -2.6036774155   -1.1392839128
C        5.8823535337    0.0032284806   -1.0072330648
C        5.6896692242    1.3660165616   -0.8181643743
C        1.9867187175   -1.8081045475   -2.0286313581
C        0.1595979709   -1.9205233184    0.0504596592
C        4.7517995662   -0.8062006776   -1.0042051332
C        4.3948340540    1.8642428497   -0.6404736387
C        2.2570034697   -1.0996067603   -0.8417958165
C        1.3395936364   -1.1733106599    0.2405221439
C        3.4803988700   -0.2467082653   -0.8034165243
C        0.4460942136   -0.1260531611    2.3380884143
C        2.9044938869   -0.6173285898    2.1362458219
N        3.3098066464    1.0782095624   -0.6385770791
N        1.5704318258   -0.5963330056    1.5128818996
H        0.6273347395   -3.0861592999   -3.1038430851
H       -1.0143653104   -3.1774808600   -1.2472576532
H        6.8739484096   -0.4127609327   -1.1534190127
H        6.5297110142    2.0489472335   -0.8109987937
H        2.6838949399   -1.7505878833   -2.8570770511
H       -0.5617823884   -2.0070311521    0.8510439843
H        4.8386648694   -1.8752949128   -1.1487682841
H        4.2611090757    2.9304018225   -0.4998395713
H       -0.3372161965    0.3039976355    1.7057997373
H        0.7826501657    0.6559724436    3.0258335292
H        0.0293519420   -0.9542220683    2.9197750529
H        3.3401369497    0.3859302952    2.1431678343
H        3.5755606556   -1.3001957754    1.6077354816
H        2.8267750098   -0.9813121632    3.1652609940
29   

C        0.9611667762   -2.6128876007   -2.1172832498
C       -0.0102822354   -2.6103509188   -1.1255574129
C        5.9462028895    0.0614462958   -1.1272120095
C        5.7670957514    1.3805232995   -0.7321558023
C        2.1302638674   -1.8772435518   -1.9371131455
C        0.2040965131   -1.8910181066    0.0506736829
C        4.8262023302   -0.7627141188   -1.1259353089
C        4.4956215308    1.8225948684   -0.3555406242
C        2.3613215605   -1.1280225333   -0.7636400196
C        1.3849277220   -1.1540145169    0.2749929348
C        3.5733740465   -0.2628370353   -0.7303870079
C        0.4083676359   -0.0627563102    2.3171794961
C        2.8683034838   -0.5756914563    2.2299597063
N        3.4211507261    1.0226625513   -0.3550344380
N        1.5615120360   -0.5593024790    1.5494464620
H        0.8031419921   -3.1707404753   -3.0333277792
H       -0.9270656308   -3.1732347384   -1.2589001232
H        6.9206230599   -0.3114191637   -1.4257934626
H        6.5998910172    2.0720591751   -0.7139077547
H        2.8549540589   -1.8571910363   -2.7430765771
H       -0.5564922065   -1.9429245409    0.8171563184
H        4.9141601056   -1.8001095508   -1.4209036940
H        4.3713309393    2.8553169682   -0.0516027381
H       -0.3489725107    0.3516973193    1.6443010158
H        0.7221133753    0.7372858268    2.9949225197
H       -0.0328645238   -0.8731758643    2.9058320253
H        3.3096055885    0.4253679929    2.2385620801
H        3.5570221468   -1.2704677427    1.7402410873
H        2.7460428893   -0.9154094410    3.2629885207
29   

C        1.0242146493   -2.7125383831   -2.0523547998
C        0.0181865608   -2.6469571743   -1.1005575846
C        5.9337162502    0.1223500133   -1.2986084631
C        5.7821676633    1.3842220806   -0.7424020011
C        2.1987703040   -1.9877360014   -1.8652193927
C        0.2047793445   -1.8774246750    0.0462712979
C        4.8281771876   -0.7211890907   -1.2815602006
C        4.5522941098    1.7503276283   -0.1915577431
C        2.4117910602   -1.1865116099   -0.7181655487
C        1.3902951325   -1.1512207640    0.2807733150
C        3.6066856804   -0.2966030312   -0.7211571715
C        0.3676231463    0.0320403862    2.2495966473
C        2.7948122311   -0.6251078435    2.2995851256
N        3.4927001344    0.9315758963   -0.1771672848
N        1.5305691284   -0.5334774901    1.5479538082
H        0.8872139726   -3.3075273315   -2.9482264558
H       -0.9038329795   -3.1994259488   -1.2412307583
H        6.8785013746   -0.1950752886   -1.7278842778
H        6.6052357756    2.0873588731   -0.7277745120
H        2.9318733092   -2.0158374441   -2.6622106473
H       -0.5822854750   -1.8834298458    0.7873523056
H        4.9173293517   -1.7186850498   -1.6896139639
H        4.4484711701    2.7376680038    0.2428411762
H       -0.3479042503    0.4458162112    1.5321241875
H        0.6844905172    0.8456216012    2.9094516595
H       -0.1251501275   -0.7397038411    2.8493204596
H        3.2543565260    0.3629781548    2.3981257405
H        3.4996556589   -1.2986010264    1.8029479501
H        2.6058531590   -1.0276526668    3.2993735039
29   

C        1.0751968734   -2.7985034988   -1.9570081950
C        0.0433866490   -2.6735619718   -1.0428383893
C        5.8975175041    0.2212734476   -1.4557996022
C        5.7994423708    1.4059686995   -0.7440192314
C        2.2529187039   -2.0782119583   -1.7736044042
C        0.2086661048   -1.8505322038    0.0668467568
C        4.8055832219   -0.6398680107   -1.4232639604
C        4.6357237026    1.6775905010   -0.0253983868
C        2.4550287211   -1.2195321700   -0.6608442599
C        1.3962359170   -1.1277420378    0.3014249714
C        3.6355797977   -0.3075149943   -0.7014551603
C        0.3299903569    0.1644691925    2.1773460284
C        2.7006413975   -0.6503445137    2.3889597331
N        3.5903264434    0.8419674762    0.0017265140
N        1.4978831396   -0.4777441596    1.5550223519
H        0.9552826022   -3.4349110507   -2.8265245346
H       -0.8816377140   -3.2211675509   -1.1828683518
H        6.7948841314   -0.0279376103   -2.0128170659
H        6.6148218777    2.1180346355   -0.7330245095
H        2.9844272505   -2.1634532915   -2.5655504579
H       -0.5984047831   -1.8125696506    0.7851784906
H        4.8884077770   -1.5801563090   -1.9476363005
H        4.5727355618    2.6026216862    0.5355446313
H       -0.3392764434    0.5669700521    1.4105912849
H        0.6513877938    0.9973138532    2.8103265800
H       -0.2167796195   -0.5581614047    2.7913850598
H        3.1805327069    0.3161112478    2.5710972820
H        3.4217768584   -1.3159226339    1.9048478988
H        2.4286384604   -1.0977126020    3.3497060248
29   

C        1.1245076926   -2.8972433238   -1.8586665367
C        0.0825583188   -2.7387732063   -0.9648154492
C        5.8006964644    0.3909853939   -1.6592767998
C        5.8307639296    1.4145394016   -0.7290114749
C        2.2945541036   -2.1589674233   -1.6989524506
C        0.2334139074   -1.8663625552    0.1056964202
C        4.7151615714   -0.4789829893   -1.6275947372
C        4.7932510641    1.5245924350    0.1924906576
C        2.4829041409   -1.2337196012   -0.6328496113
C        1.4110289171   -1.1211462592    0.3171637431
C        3.6679133062   -0.3207191881   -0.6821049408
C        0.3025003976    0.3176528275    2.0512808691
C        2.5593211625   -0.7047256310    2.4913646033
N        3.7549422636    0.6810903444    0.2162149382
N        1.4684918144   -0.4203818101    1.5427627404
H        1.0221335194   -3.5818160375   -2.6931813069
H       -0.8358853333   -3.3016622339   -1.0864682245
H        6.5965845477    0.2706564922   -2.3870998585
H        6.6475704991    2.1246419641   -0.7065050643
H        3.0282636666   -2.3175678320   -2.4737208315
H       -0.5779233108   -1.8029674092    0.8177845147
H        4.7259605009   -1.2746461601   -2.3534584674
H        4.8257707544    2.3251662223    0.9220870107
H       -0.3254595178    0.6602338291    1.2229420411
H        0.6310922719    1.1989951202    2.6104268412
H       -0.2921502474   -0.3227902772    2.7104511334
H        3.0632572922    0.2230046591    2.7795942528
H        3.2983634501   -1.3774933182    2.0450806475
H        2.1610382017   -1.1888355783    3.3880582806
29   

C        1.2185383089   -2.9899740254   -1.7888563288
C        0.2062773627   -2.8682819149   -0.8540213908
C        5.6132455353    0.6394931706   -1.9216757986
C        5.9287289503    1.3395600482   -0.7703903520
C        2.3506686754   -2.1840671121   -1.6920658855
C        0.3494851775   -1.9577445012    0.1867602895
C        4.5030851672   -0.1978871455   -1.8817856262
C        5.1296858421    1.1841470962    0.3597565459
C        2.5151548490   -1.2122444079   -0.6666934756
C        1.4848189032   -1.1357076651    0.3225339213
C        3.7300446921   -0.3439813381   -0.7017562832
C        0.3314570578    0.5094970758    1.8001263258
C        2.4075629793   -0.6805065965    2.5713587307
N        4.0663923503    0.3719312448    0.3884766887
N        1.4994771277   -0.3203788351    1.4698540886
H        1.1311694344   -3.7129847742   -2.5920501070
H       -0.6803281614   -3.4885366667   -0.9203428706
H        6.2026409102    0.7498922965   -2.8261054757
H        6.7780055099    2.0101458539   -0.7402895931
H        3.1072409679   -2.3569970902   -2.4440593973
H       -0.4344725336   -1.9046432018    0.9304631056
H        4.2417659716   -0.7024313598   -2.7985045665
H        5.3775624518    1.7427581408    1.2546192357
H       -0.2640610911    0.7082596314    0.9034900452
H        0.6584812159    1.4700804169    2.2093860546
H       -0.2992678239    0.0004072672    2.5358765904
H        2.9351937625    0.2079226064    2.9315968962
H        3.1508463729   -1.4111359627    2.2365891644
H        1.8430979981   -1.1245390749    3.3968128208
29   

C        1.2679288343   -3.0448629895   -1.7394479286
C        0.2713158230   -2.9560985571   -0.7796430622
C        5.4248363574    0.8461538065   -1.9373900372
C        5.9274892590    1.2956899336   -0.7266361371
C        2.3735077132   -2.1993130651   -1.6668900895
C        0.3965651549   -2.0283024098    0.2516267456
C        4.3101930226    0.0154988222   -1.8983442275
C        5.3041982262    0.9073235601    0.4596578161
C        2.5180303704   -1.2332908567   -0.6401466605
C        1.5030560572   -1.1656709845    0.3552134321
C        3.7231937656   -0.3583729363   -0.6691720454
C        0.3249215188    0.5796332363    1.6708797985
C        2.3093789951   -0.6316405994    2.6227200125
N        4.2338275198    0.1031775503    0.4870872721
N        1.4955301765   -0.2812276452    1.4473158402
H        1.1894902582   -3.7726125218   -2.5392204833
H       -0.5931292514   -3.6086665648   -0.8249768828
H        5.8766316055    1.1392842682   -2.8794353816
H        6.7906581133    1.9479727071   -0.6902294824
H        3.1386988480   -2.3211964055   -2.4235667670
H       -0.3788763582   -1.9817546471    1.0048837824
H        3.8801042790   -0.3179507517   -2.8321722442
H        5.7024030473    1.2693234694    1.4002236713
H       -0.2276990160    0.7249185261    0.7372114632
H        0.6458698361    1.5614867768    2.0316334096
H       -0.3453565165    0.1259719719    2.4078794283
H        2.8649677570    0.2439756460    2.9716777481
H        3.0273167792   -1.4200050317    2.3748754572
H        1.6692644861   -0.9992605080    3.4304451648
29   

C        1.3276538404   -3.1265607573   -1.6684375361
C        0.3213924695   -3.0288391886   -0.7159204979
C        5.2665341232    1.0029324135   -1.9004759189
C        5.9152768658    1.2700691377   -0.7036368508
C        2.4215730575   -2.2641603409   -1.6068046682
C        0.4208954252   -2.0707812226    0.2929779962
C        4.1583415421    0.1646055141   -1.8514543029
C        5.4403757567    0.6975752701    0.4786816705
C        2.5402204025   -1.2863573189   -0.5942492660
C        1.5156377166   -1.1928646973    0.3818408038
C        3.7219663395   -0.3814695332   -0.6292212033
C        0.3147717783    0.5972577999    1.6075824219
C        2.3034728081   -0.5494120338    2.6253320284
N        4.3741048070   -0.1126235608    0.5161220552
N        1.4987064619   -0.2557628094    1.4282811995
H        1.2637267323   -3.8710583412   -2.4539190247
H       -0.5335029010   -3.6943658860   -0.7530584774
H        5.6059930202    1.4351120089   -2.8361267246
H        6.7822371237    1.9176711395   -0.6742813204
H        3.1991942162   -2.3655444171   -2.3552088935
H       -0.3640995961   -2.0099665010    1.0351996871
H        3.6115845312   -0.0564791773   -2.7583786422
H        5.9566446440    0.9146839401    1.4063776208
H       -0.2156182312    0.7195225376    0.6578429205
H        0.6176702347    1.5891271519    1.9565387145
H       -0.3689361036    0.1517261013    2.3371119857
H        2.8951126524    0.3265087544    2.9074350001
H        2.9860711032   -1.3845427518    2.4383609619
H        1.6526371103   -0.8295744215    3.4592130594
29   

C        1.3641929715   -3.1954182805   -1.6151532617
C        0.3261938407   -3.0600918390   -0.6998193604
C        5.1287156331    1.1360097755   -1.8149923747
C        5.9125744755    1.2292858025   -0.6732062896
C        2.4617548144   -2.3379217392   -1.5440611893
C        0.3962934680   -2.0691189366    0.2811588520
C        4.0227782629    0.2952331919   -1.7604499504
C        5.5693172819    0.4880544053    0.4608969126
C        2.5493869017   -1.3370278212   -0.5557260853
C        1.4956787001   -1.1978159683    0.3785327543
C        3.7216987453   -0.4154451732   -0.5864324380
C        0.2632204494    0.5977926109    1.5701379602
C        2.3254983507   -0.4271249541    2.5694321183
N        4.5030828741   -0.3228282442    0.5039589801
N        1.4718342084   -0.2199657189    1.3880401406
H        1.3202983696   -3.9625349972   -2.3799488985
H       -0.5316333887   -3.7213086479   -0.7452819232
H        5.3666816230    1.6977640555   -2.7123433557
H        6.7859571139    1.8684900881   -0.6504594127
H        3.2643424981   -2.4505334958   -2.2644258924
H       -0.4137654117   -1.9805475303    0.9928275739
H        3.3730331923    0.1895182700   -2.6193574356
H        6.1924780680    0.5688438934    1.3437648604
H       -0.2718135319    0.7047234242    0.6211495832
H        0.5375473450    1.5986115947    1.9173935409
H       -0.4049733983    0.1335497497    2.3023344057
H        2.9558966335    0.4502344693    2.7407508256
H        2.9688000876   -1.3026110961    2.4360446803
H        1.7075267018   -0.6050039905    3.4548387549
29   

C        1.4039617324   -3.2642754591   -1.5760965669
C        0.3264962847   -3.0796402186   -0.7156740654
C        4.9992165521    1.2815312079   -1.6908811804
C        5.9146696128    1.1988236790   -0.6502449711
C        2.5073332438   -2.4157360400   -1.4898751135
C        0.3635830403   -2.0508558435    0.2284985891
C        3.8977449894    0.4349975614   -1.6372236785
C        5.6995923112    0.2863021271    0.3867600330
C        2.5583084555   -1.3783464323   -0.5403298445
C        1.4700021642   -1.1892996477    0.3425913224
C        3.7321844934   -0.4523649052   -0.5630165356
C        0.1926968242    0.5833175667    1.5378445359
C        2.3834242291   -0.2471886437    2.4406829910
N        4.6351801115   -0.5277637429    0.4298529536
N        1.4344398671   -0.1740773261    1.3172646063
H        1.3852528937   -4.0609997514   -2.3110486474
H       -0.5363544499   -3.7332378056   -0.7743240320
H        5.1356592908    1.9781897926   -2.5115450079
H        6.7927704355    1.8317265289   -0.6326149708
H        3.3407486222   -2.5574310253   -2.1690285204
H       -0.4772850709   -1.9315605426    0.8983675960
H        3.1480827992    0.4547432132   -2.4175629741
H        6.4244596021    0.2315438446    1.1904405854
H       -0.3670774972    0.6786894430    0.6019981082
H        0.4272443767    1.5916382189    1.8927134368
H       -0.4352521166    0.0794524056    2.2793808819
H        3.0370637244    0.6296576566    2.4457973724
H        2.9962885287   -1.1514423441    2.3746895995
H        1.8400647448   -0.2952498689    3.3893143838
29   

C        1.4309653055   -3.3494777222   -1.5145591271
C        0.3202466469   -3.1137593281   -0.7101068432
C        4.8668683117    1.4334949833   -1.4676819105
C        5.9028795920    1.1661446919   -0.5821367866
C        2.5372175086   -2.5052341866   -1.4251361091
C        0.3284615112   -2.0421827781    0.1867499103
C        3.7700533656    0.5798041460   -1.4389823391
C        5.8049734012    0.0742619525    0.2858596713
C        2.5532663036   -1.4205297239   -0.5308131465
C        1.4388224997   -1.1851560542    0.3065367206
C        3.7324648196   -0.4984879779   -0.5440002479
C        0.1293507419    0.5682514381    1.5127256703
C        2.4365208635   -0.0602528411    2.2845377864
N        4.7432194702   -0.7445978075    0.3071445598
N        1.3947136060   -0.1339502510    1.2457649086
H        1.4358049029   -4.1820118151   -2.2088936197
H       -0.5452160152   -3.7635010349   -0.7728597315
H        4.9092500321    2.2737307492   -2.1529924819
H        6.7847759144    1.7934765404   -0.5555125888
H        3.3981834709   -2.6833569912   -2.0599289460
H       -0.5377737597   -1.8927734879    0.8166717971
H        2.9274140684    0.7365842420   -2.0998802501
H        6.6216046062   -0.1207958355    0.9710050358
H       -0.4582955794    0.6567031593    0.5934423623
H        0.3315679385    1.5798882076    1.8781237686
H       -0.4559592045    0.0281891795    2.2635616808
H        3.0791010255    0.8096214937    2.1221689459
H        3.0478352996   -0.9676917842    2.2869321023
H        1.9752843407    0.0142440529    3.2740532205
29   

C        1.4812520364   -3.4271055634   -1.4971661461
C        0.3422096258   -3.1545380514   -0.7456834619
C        4.7923000272    1.5556400961   -1.1829021758
C        5.9258304584    1.1182126219   -0.5095725290
C        2.5857938326   -2.5812709483   -1.4043531338
C        0.3217873813   -2.0480460916    0.1077675075
C        3.6942679825    0.7033639189   -1.1991560705
C        5.9184359817   -0.1322512618    0.1165780362
C        2.5690204850   -1.4542970481   -0.5644046727
C        1.4305544742   -1.1887652107    0.2332051341
C        3.7544909867   -0.5434834537   -0.5614832982
C        0.0903206125    0.5489694061    1.4393260547
C        2.4607430761    0.0688823217    2.1241979567
N        4.8546742695   -0.9487047579    0.0968684957
N        1.3722041313   -0.1126551883    1.1467091292
H        1.5101303893   -4.2900075088   -2.1527319577
H       -0.5219981767   -3.8055453265   -0.8124128687
H        4.7618324777    2.5227191439   -1.6740918309
H        6.8141534193    1.7351651388   -0.4617053927
H        3.4710715071   -2.7889612773   -1.9953728034
H       -0.5656083253   -1.8785064556    0.7018178979
H        2.7755606793    0.9882555074   -1.6956141650
H        6.8095044894   -0.4571265848    0.6408257142
H       -0.5154891605    0.6240410647    0.5306894350
H        0.2666179837    1.5648960396    1.8063215729
H       -0.4640889378   -0.0119660851    2.1982697125
H        3.0448266830    0.9624639496    1.8865276839
H        3.1222258759   -0.8024641207    2.1378856043
H        2.0464495835    0.1685998083    3.1321351103
29   

C        1.5072460875   -3.4754029451   -1.4355063471
C        0.3465820692   -3.1716469339   -0.7316042459
C        4.7624618354    1.6086906705   -0.9503005871
C        5.9623647551    1.0600953537   -0.5159430719
C        2.6103103361   -2.6280800713   -1.3425162342
C        0.3043814862   -2.0345085311    0.0790738987
C        3.6503845872    0.7749936514   -0.9633970622
C        6.0051504286   -0.2786146469   -0.1137102020
C        2.5725415070   -1.4650597727   -0.5519680131
C        1.4116272999   -1.1728724273    0.2061564846
C        3.7603927920   -0.5630052642   -0.5562964852
C        0.0469805583    0.5747547124    1.3740190562
C        2.4195144085    0.1379833271    2.0773595688
N        4.9277628051   -1.0771936326   -0.1290380705
N        1.3371425208   -0.0787038849    1.0987540804
H        1.5546463157   -4.3635993993   -2.0552167839
H       -0.5167760384   -3.8236568028   -0.7994694285
H        4.6928443378    2.6448407154   -1.2648768539
H        6.8647706107    1.6573127034   -0.4835975227
H        3.5119774769   -2.8613246485   -1.8985313170
H       -0.5992370325   -1.8458690564    0.6419528512
H        2.6823666206    1.1426635796   -1.2794875771
H        6.9486036915   -0.6902762748    0.2251509245
H       -0.5544682952    0.6304631128    0.4610994997
H        0.2109490379    1.5976721783    1.7270135467
H       -0.5060874872    0.0197080631    2.1383047374
H        2.9407634429    1.0769243541    1.8700823869
H        3.1411144895   -0.6842734953    2.0556201075
H        2.0060523782    0.1736737626    3.0899749337
29   

C        1.5888516336   -3.5243918490   -1.3927983742
C        0.3970825535   -3.2066379684   -0.7526322681
C        4.7872719158    1.6269806831   -0.7861015442
C        6.0203853865    1.0231803097   -0.5781511481
C        2.6832741113   -2.6695528506   -1.2746198751
C        0.3163171354   -2.0486411415    0.0228445630
C        3.6652622976    0.8069716756   -0.7623589795
C        6.0861936391   -0.3559651096   -0.3584639380
C        2.6133393498   -1.4811213530   -0.5192632552
C        1.4142511182   -1.1789612701    0.1763363394
C        3.7949077585   -0.5726548544   -0.5330450299
C       -0.0048871676    0.5728187783    1.2729743566
C        2.3312565347    0.1372269758    2.0880127185
N        4.9995270539   -1.1416617424   -0.3372071845
N        1.2978746917   -0.0784532954    1.0571315423
H        1.6673433202   -4.4282992457   -1.9860695764
H       -0.4603902363   -3.8638640312   -0.8415256441
H        4.7004829740    2.6940948336   -0.9624945806
H        6.9317555338    1.6074573012   -0.5865768178
H        3.6036349900   -2.9174209456   -1.7926618359
H       -0.6117684421   -1.8514213586    0.5411265050
H        2.6764199901    1.2187273464   -0.9202967501
H        7.0564379773   -0.8118519737   -0.1997157422
H       -0.5701512601    0.6148688484    0.3365076172
H        0.1410035223    1.6004569063    1.6200682866
H       -0.5856776655    0.0244118640    2.0213849722
H        2.8098836303    1.1112627569    1.9515146194
H        3.0976489543   -0.6429451296    2.0503956043
H        1.8788901798    0.0972872791    3.0837464567
29   

C        1.6298255484   -3.5472801147   -1.3071590868
C        0.4174631945   -3.2092297272   -0.7233936996
C        4.8332638147    1.6366266110   -0.6564602110
C        6.0670054255    1.0015560738   -0.6803202016
C        2.7221847826   -2.6928292700   -1.1728786824
C        0.3149709579   -2.0310645924    0.0147142466
C        3.7030427415    0.8320038365   -0.5703259501
C        6.1253966520   -0.3932090394   -0.6260032750
C        2.6407901632   -1.4782233734   -0.4509408423
C        1.4099696900   -1.1605062222    0.1859902477
C        3.8225811650   -0.5678858160   -0.4941455884
C       -0.0449975123    0.6099494321    1.2047928965
C        2.2379047977    0.1412470049    2.1437566005
N        5.0313623952   -1.1640240481   -0.5426286053
N        1.2600257513   -0.0562191691    1.0567090272
H        1.7265669066   -4.4660594495   -1.8743406634
H       -0.4390395751   -3.8656345573   -0.8265328068
H        4.7510427565    2.7171506342   -0.7118524184
H        6.9837357040    1.5733065167   -0.7491408180
H        3.6478818811   -2.9686145389   -1.6664348568
H       -0.6304782243   -1.8192866506    0.4943686716
H        2.7186975427    1.2812452768   -0.5765111876
H        7.0957261706   -0.8749215350   -0.6547063236
H       -0.5708527263    0.6372238226    0.2450834768
H        0.0953657002    1.6431406742    1.5372326422
H       -0.6613929597    0.0812026768    1.9387933677
H        2.6805120440    1.1397252332    2.0818071684
H        3.0395155090   -0.6021008126    2.0968091076
H        1.7444862835    0.0282439013    3.1140932297
29   

C        1.6739353978   -3.5814767002   -1.2154307642
C        0.4449272905   -3.2189526839   -0.6899608063
C        4.9048736583    1.6314225022   -0.5341878617
C        6.1078253231    0.9917777933   -0.7900619238
C        2.7662410312   -2.7290748459   -1.0712112049
C        0.3271881402   -2.0187358470    0.0048145436
C        3.7742362421    0.8355657868   -0.3883044936
C        6.1342123197   -0.3984757582   -0.9046640068
C        2.6785006656   -1.4835039619   -0.3918546848
C        1.4210212341   -1.1488034358    0.1879897535
C        3.8612798843   -0.5702685624   -0.4669861187
C       -0.0577084681    0.6535355248    1.1119531986
C        2.1410575692    0.1150885633    2.2050959150
N        5.0405885380   -1.1601828051   -0.7607882054
N        1.2385900847   -0.0429819857    1.0487959548
H        1.7848609808   -4.5180879006   -1.7499458551
H       -0.4120134129   -3.8731962176   -0.8027406121
H        4.8429639027    2.7125542680   -0.4658447467
H        7.0219828595    1.5576813066   -0.9168057540
H        3.6933315228   -3.0440217179   -1.5369960270
H       -0.6321101240   -1.7889657611    0.4473033905
H        2.8182302355    1.3171956292   -0.2447152156
H        7.0779016814   -0.8850437737   -1.1216951784
H       -0.5367984394    0.6595771830    0.1276741562
H        0.0886366055    1.6939065087    1.4182149811
H       -0.7200431562    0.1605840686    1.8307353294
H        2.5423204297    1.1323858706    2.2381851691
H        2.9786314942   -0.5871773946    2.1534269850
H        1.5969444843   -0.0856177770    3.1332375378
29   

C        1.7759619224   -3.6107623129   -1.0068551501
C        0.8435593380   -3.4940553451    0.0081143645
C        5.2567074801    1.4652704847   -0.0953267419
C        6.0568918565    1.1373290702   -1.1762931812
C        2.6686678432   -2.5695434557   -1.2501785083
C        0.7900190927   -2.3181157816    0.7475285936
C        4.1396353903    0.6720679380    0.1438488873
C        5.7265953757    0.0322360535   -1.9572725275
C        2.6706005399   -1.3604149045   -0.4942375382
C        1.6638153730   -1.2388202536    0.5075315017
C        3.8096242397   -0.4083300550   -0.7081950655
C        0.9819329661    1.1337898342    0.3878056368
C        0.9658892355   -0.0611519067    2.6018847884
N        4.6464128405   -0.7251895002   -1.7228922329
N        1.3816632488   -0.0378770715    1.1890073794
H        1.8237533894   -4.5149182800   -1.6030868490
H        0.1491032493   -4.3016974688    0.2094438822
H        5.5009939390    2.2995813729    0.5539749631
H        6.9415734208    1.7157962590   -1.4100525155
H        3.3941006799   -2.7467626714   -2.0358375368
H        0.0141328615   -2.2308347544    1.4956736601
H        3.5654741225    0.8959079151    1.0266424769
H        6.3702595675   -0.2285630611   -2.7891729815
H        1.3217079173    1.0358234126   -0.6479236073
H        1.4189704303    2.0458157677    0.8056424450
H       -0.1083769353    1.2286207546    0.3811619315
H        1.3142372699    0.8425682225    3.1111432193
H        1.4014147426   -0.9244412269    3.1151920615
H       -0.1248907635   -0.1162203817    2.6764420880
