27

C      0.61572   -0.45443    0.82664
C      0.95121    0.06271    2.09230
C      2.06675    1.34136   -2.01939
C      3.45037    1.00272   -2.06426
C     -1.51440    0.75882    0.81649
C     -0.58843   -0.11580    0.20444
C      0.03195    0.90840    2.68517
C     -1.17358    1.24304    2.06306
C      1.26304    0.30484   -2.42164
C      3.64312   -0.28665   -2.49708
C     -1.01832    2.41960    3.96183
N     -0.84325   -0.66641   -1.09951
O     -1.02580   -0.38628   -3.59054
O     -0.88525    1.73467   -2.17755
O      0.09814    1.51310    3.91984
O     -1.90532    2.06993    2.88647
S      2.15970   -1.11721   -2.86798
S     -0.50262    0.34406   -2.43579
Cl     5.16160   -1.08350   -2.70728
H      1.29203   -1.13237    0.31701
H      1.88168   -0.19814    2.58569
H      1.66550    2.29671   -1.70070
H      4.26131    1.66984   -1.79553
H     -2.43219    1.05204    0.31815
H     -1.54045    2.30554    4.91393
H     -0.65710    3.44623    3.81589
H     -1.78549   -1.03631   -1.23404
