48

C     -1.10589   -5.12825    6.31986
C     -0.32932   -5.86589    5.46639
C     -2.20927   -4.65382    4.44937
C      0.06467   -0.57084    1.92757
C      1.46399   -2.65155    3.36840
C      0.25287   -2.01840    4.03989
C     -1.77662   -0.53862    3.67255
C      1.82122   -0.16800   -0.63136
C      2.04900    1.63410    1.10925
C      2.25973   -1.58068    2.63779
C     -2.77231   -1.58500    4.17827
C     -1.55557   -2.46906    2.29296
C      2.68473    0.70939   -1.54256
C      2.90275    2.39908    0.09329
C      2.16435    0.12744    0.83577
C     -0.68162   -1.39161    2.99239
C     -3.17077   -3.95316    3.51218
N     -2.15816   -4.45170    5.74215
N      1.42118   -0.71673    1.79562
N     -2.76901   -2.60873    3.12009
O     -0.57594    0.18578    1.18892
O      2.53576    2.09730   -1.25112
S     -0.94058   -5.71958    3.85271
H     -0.95080   -5.05425    7.39102
H      0.53047   -6.48100    5.69757
H      2.11385   -3.13842    4.10306
H      1.14503   -3.42563    2.66208
H     -0.28835   -2.75291    4.64019
H      0.59311   -1.23805    4.73368
H     -2.23713    0.10761    2.92307
H     -1.37796    0.08629    4.47733
H      0.76455    0.04172   -0.80532
H      2.00498   -1.22600   -0.85670
H      2.39381    1.86218    2.12568
H      1.00634    1.94335    1.02250
H      2.80297   -0.95861    3.36533
H      3.01276   -2.04918    1.99408
H     -2.45991   -1.99327    5.14895
H     -3.77970   -1.17007    4.30295
H     -1.82590   -2.13010    1.28686
H     -1.01680   -3.41726    2.19345
H      3.74776    0.42618   -1.44725
H      2.39596    0.58776   -2.58980
H      2.77140    3.47824    0.20749
H      3.97213    2.16835    0.24308
H      3.21732   -0.14280    0.98295
H     -3.31830   -4.55752    2.61124
H     -4.13688   -3.88798    4.02201
