25

C      1.76830   -1.14809   -0.04546
C      0.74756   -0.52791    0.68042
C      5.65480   -4.16347    2.96788
C      2.83970   -1.74007    0.62499
C      0.80380   -0.51024    2.07604
C      4.54882   -3.61755    2.31228
C      6.26636   -3.44372    3.99228
C      2.92328   -1.72900    2.02722
C      1.87756   -1.10916    2.72884
C      4.08731   -2.35509    2.70676
C      5.71704   -2.19297    4.30101
C      1.30778   -2.04644    4.81306
N      4.67674   -1.65599    3.69583
O      1.91025   -1.04429    4.13382
F      1.79943   -3.26943    4.49734
F     -0.03039   -2.10244    4.58851
F      1.50301   -1.83593    6.11837
Cl     6.45722   -1.24754    5.58892
H      1.73713   -1.16109   -1.13131
H     -0.08706   -0.05868    0.16741
H      6.03077   -5.14488    2.69168
H      3.64551   -2.19555    0.05629
H      0.02356   -0.04205    2.66737
H      4.03423   -4.16910    1.53231
H      7.12375   -3.82572    4.53511
