25

C     -2.95020    0.77921   -4.81731
C     -4.10293    0.38772   -5.51076
C     -3.45473   -1.93792   -5.27431
C     -2.03882   -0.17237   -4.34574
C     -2.32175   -1.52811   -4.59102
C     -4.34720   -0.96340   -5.73451
C      2.92375    1.91026   -2.89962
C      2.28096    3.18665   -2.34225
C      0.72982    1.49170   -2.64078
C     -0.58354    1.45945   -3.39909
O      1.81551    1.24226   -3.50768
O      0.91471    2.80427   -2.10528
O     -0.89257    0.09330   -3.66285
F     -1.45385   -2.45970   -4.13932
Cl    -5.78891   -1.46345   -6.60277
H     -2.77442    1.83567   -4.65162
H     -4.80072    1.13615   -5.87116
H     -3.62817   -2.99605   -5.43845
H      3.67812    2.08917   -3.66742
H      3.35256    1.29109   -2.09947
H      2.73273    3.51874   -1.40280
H      2.30095    4.00727   -3.06788
H      0.72067    0.75807   -1.81907
H     -0.47353    2.02790   -4.32981
H     -1.35999    1.91907   -2.77606
