29

C     -4.15121   -2.72667   -8.81385
C      3.68006    0.99659   -4.53090
C      3.31305    1.77226   -5.64518
C     -4.29663   -3.61423   -9.88496
C     -3.24152   -3.01076   -7.79573
C      3.06448   -0.23043   -4.25101
C      2.30831    1.34882   -6.53029
C     -3.53758   -4.78625   -9.93048
C     -2.45579   -4.18081   -7.81963
C      2.06298   -0.66281   -5.12389
C      1.71786    0.13376   -6.22837
C     -2.63262   -5.05820   -8.90347
C      0.52240   -1.67897   -6.16916
C     -1.53429   -4.49462   -6.70029
N      1.26910   -1.82031   -5.12040
N     -0.66030   -3.72402   -6.15210
N     -0.47935   -2.47423   -6.66269
O      0.70796   -0.53085   -6.91509
Br    -1.60128   -6.67298   -9.01056
H     -4.74973   -1.82139   -8.76707
H      4.46255    1.36027   -3.87044
H      3.81530    2.71806   -5.82728
H     -5.00152   -3.40148  -10.68384
H     -3.15134   -2.33706   -6.94802
H      3.34898   -0.82842   -3.39059
H      2.01534    1.93698   -7.39441
H     -3.64466   -5.48229  -10.75604
H     -1.58395   -5.49097   -6.26786
H     -0.84818   -2.22216   -7.57833
