40

C     -1.55193   -1.52570   -0.01467
C     -0.28753   -1.01167    0.29875
C     -1.70569   -2.89510   -0.22938
C      0.80320   -1.87551    0.38819
C      6.28939   -8.61168   -1.51139
C      5.08969   -7.98915   -1.16163
C      6.26664   -5.92329   -0.55071
C     -0.61260   -3.77071   -0.14616
C      0.65274   -3.25111    0.16220
C      7.48044   -7.89413   -1.38309
C      5.07041   -6.65608   -0.68525
C      7.43410   -6.57672   -0.90826
C      9.49225   -7.16548   -1.33598
C      2.59274   -6.48575   -0.24931
C     -0.77881   -5.25802   -0.35631
C      1.89207   -4.12745    0.23686
C      0.28756   -6.02793    0.41656
C     10.96006   -6.93976   -1.41088
N      8.81850   -8.22796   -1.64373
N      1.61677   -5.54581    0.04164
N      3.88192   -5.97399   -0.34193
O      2.32789   -7.67668   -0.42009
O      8.72591   -6.09945   -0.87457
H     -2.41070   -0.86302   -0.08265
H     -0.15556    0.05251    0.47508
H     -2.68912   -3.29958   -0.46030
H      1.78630   -1.47737    0.63489
H      6.29258   -9.63500   -1.87465
H      4.15364   -8.52263   -1.24026
H      6.27484   -4.89904   -0.18657
H     -1.77518   -5.57564   -0.03054
H     -0.69238   -5.50437   -1.42192
H      2.57127   -3.78613   -0.55342
H      2.39203   -3.94678    1.20361
H      0.13547   -5.89457    1.49753
H      0.25493   -7.09276    0.19436
H     11.18984   -6.10372   -2.07959
H     11.36552   -6.69671   -0.42321
H     11.44020   -7.84405   -1.78547
H      4.02884   -5.02486   -0.03297
