49

C      3.27979    4.80151    0.54010
C      1.36186    3.42010    0.03759
C     -2.67312   -0.55849    0.24928
C     -2.20068    2.86420   -0.96437
C     -3.01284    0.63627   -1.99567
C     -0.95709    3.72123   -0.72756
C     -1.19539   -2.59216    0.49855
C     -2.21462   -1.53547    2.44436
C      0.18273   -2.40616    1.13465
C     -0.82407   -1.35310    3.05263
C     -0.01535    1.42636   -0.27092
C     -2.38100   -0.55534   -1.27042
C     -1.91938    1.73091   -1.96253
C     -0.62493    0.95226   -1.59589
C      4.30018    5.87101    0.77584
C      1.40044   -2.27822    3.21331
N      3.48035    3.53652    0.74506
N      2.40023    2.73538    0.46948
N      0.16970    2.87656   -0.32087
N     -2.11808   -1.56366    0.98320
N      0.08419   -2.40632    2.59544
O     -3.37522    0.32418    0.76006
O     -0.97032   -0.44128   -1.52419
S      1.64987    5.16307   -0.05398
H     -2.55895    2.44674   -0.02036
H     -2.99866    3.50824   -1.34759
H     -3.23123    0.34608   -3.02653
H     -3.93769    0.95609   -1.51486
H     -0.69394    4.26727   -1.64609
H     -1.16047    4.46986    0.04960
H     -1.10340   -2.55383   -0.58305
H     -1.59652   -3.57224    0.78563
H     -2.64345   -2.48522    2.78593
H     -2.87854   -0.72042    2.72868
H      0.83154   -3.23382    0.82712
H      0.62807   -1.47043    0.75101
H     -0.44524   -0.34585    2.79181
H     -0.89976   -1.40437    4.14439
H     -0.66037    1.14954    0.57039
H      0.95778    0.96575   -0.11069
H     -2.70132   -1.50949   -1.69995
H     -1.80164    2.16882   -2.95873
H      0.13276    1.04166   -2.37955
H      4.52584    6.42099   -0.14415
H      3.95790    6.59440    1.52377
H      5.21617    5.39873    1.13699
H      2.04017   -3.10613    2.89118
H      1.30196   -2.32954    4.30241
H      1.90706   -1.33004    2.95562
