37

C      1.86446    3.43522    3.67757
C     -3.94077    3.35414    4.79577
C     -2.34309    5.03293    5.54261
C     -4.97317    4.03147    5.45064
C     -3.36946    5.71334    6.20320
C     -2.62952    3.85912    4.82485
C     -4.66440    5.18885    6.16780
C      0.32910    1.65564    2.75328
C      0.48829   -0.13967    1.51543
C      0.55062    2.87940    3.52358
C      1.05620   -1.24270    0.68583
C      2.18952   -2.02083    1.38591
C      3.53280   -1.27942    1.45175
C      3.54431    0.03111    2.25284
C      2.64434    1.13705    1.69058
N      2.94259    3.86408    3.80029
N     -0.86444    1.06334    2.70169
N     -0.76176   -0.06402    1.93042
N     -0.38509    3.55211    4.16430
N      1.22213    0.92047    1.99586
N     -1.63348    3.13791    4.15150
I     -6.40082    6.65825    6.57994
H     -4.15832    2.43675    4.25365
H     -1.32607    5.40760    5.57391
H     -5.98650    3.64674    5.40770
H     -3.14925    6.62662    6.74591
H      0.22208   -1.91106    0.45998
H      1.41835   -0.84635   -0.27244
H      1.86120   -2.29801    2.39490
H      2.34130   -2.95797    0.83906
H      4.28073   -1.95369    1.88432
H      3.87065   -1.06720    0.42785
H      3.26870   -0.15003    3.29846
H      4.56728    0.42328    2.26416
H      2.93584    2.10071    2.09558
H      2.74501    1.20016    0.60138
H     -1.85834    2.26072    3.65085
