40

C      1.54192   -0.79520   -0.16886
C      0.43576   -0.73354   -1.02530
C      2.55274   -1.72355   -0.41719
C      0.35920   -1.59898   -2.11608
C      5.96816   -7.20133   -7.73634
C      5.46992   -6.49869   -6.64124
C      3.23622   -6.29491   -7.63879
C      2.48283   -2.59688   -1.51290
C      1.37540   -2.53073   -2.37300
C      5.09144   -7.45835   -8.79374
C      4.12717   -6.04616   -6.58017
C      3.76934   -7.00151   -8.70703
C      4.10348   -8.04564  -10.59571
C      2.54485   -4.74001   -5.12590
C      3.58962   -3.59770   -1.77128
C      1.22529   -3.45410   -3.56632
C      3.09821   -4.73676   -2.66174
C      3.69258   -8.57601  -11.92275
N      5.26185   -8.12064  -10.01766
N      2.46144   -4.17914   -3.85696
N      3.75434   -5.36199   -5.40345
O      1.62948   -4.64467   -5.94355
O      3.12888   -7.37832   -9.86798
H      1.61225   -0.12705    0.68552
H     -0.35904   -0.01481   -0.84376
H      3.41097   -1.77853    0.24998
H     -0.49882   -1.55050   -2.78405
H      7.00003   -7.53742   -7.76592
H      6.13145   -6.29052   -5.80252
H      2.21552   -5.94134   -7.61263
H      4.43403   -3.09795   -2.26320
H      3.96193   -4.00231   -0.82337
H      0.40129   -4.16224   -3.38555
H      0.95126   -2.88375   -4.45452
H      3.91921   -5.40116   -2.93120
H      2.36627   -5.35073   -2.11447
H      2.86816   -9.28858  -11.81604
H      3.34829   -7.76513  -12.57296
H      4.54389   -9.07469  -12.38665
H      4.51959   -5.16987   -4.77342
