41

C     -8.41323    3.74604   -6.45744
C     -7.23172    3.22652   -5.92643
C     -2.16399   -0.59373   -1.47016
C     -2.75359   -1.85470   -1.51638
C     -3.07082    0.80784   -4.80578
C     -3.58712   -1.40865   -3.75635
C     -5.99931    4.28741   -7.71783
C     -2.99507   -0.13010   -3.71849
C     -2.49942    2.04184   -4.72937
C     -8.41970    4.53568   -7.61294
C     -7.18557    4.80642   -8.24510
C     -6.01181    3.49611   -6.56000
C     -2.28874    0.26133   -2.56725
C     -3.46326   -2.25102   -2.66144
C     -1.78667    2.44231   -3.50127
C     -2.54209    3.00199   -5.86994
C     -9.71561    5.08270   -8.16455
C     -7.13728    5.65744   -9.49295
C     -1.23816    3.53977   -6.39986
N     -3.62950    3.36745   -6.46567
N     -4.83808    2.92407   -6.03817
O     -1.27449    3.52069   -3.29706
O     -1.70274    1.49163   -2.48394
Br    -4.27615   -3.98418   -2.70666
H     -9.35367    3.53087   -5.95474
H     -7.25974    2.61670   -5.02510
H     -1.61133   -0.26250   -0.59663
H     -2.66596   -2.52792   -0.67015
H     -3.59528    0.51515   -5.71287
H     -4.13550   -1.72147   -4.63960
H     -5.04918    4.49451   -8.19755
H     -9.71160    6.17881   -8.20171
H     -9.90236    4.73227   -9.18699
H    -10.56507    4.77506   -7.54851
H     -7.73453    5.21775  -10.30052
H     -7.54229    6.65964   -9.30955
H     -6.11286    5.77094   -9.85624
H     -0.56025    2.72170   -6.67323
H     -1.43333    4.15017   -7.28377
H     -0.73223    4.14731   -5.64453
H     -4.90864    2.54453   -5.09550
