28

C      5.31572   -6.73097    2.01919
C      4.22534   -7.45441    2.53306
C      5.12655   -5.51247    1.36598
C      2.92153   -6.96620    2.40126
C      3.82540   -5.00815    1.22275
C      2.73435   -5.74825    1.74595
C      2.19951   -3.63470    0.63875
C      0.31601   -0.48161   -1.23297
C      0.25260    0.85558   -1.37989
C     -0.30928   -1.30208   -0.17623
C     -0.39841    1.86102   -0.47406
N      3.48820   -3.81227    0.59976
N      0.25357   -2.32530    0.38288
N     -1.58858   -0.95017    0.26657
N      1.57739   -2.55913    0.05786
S      1.22737   -4.88523    1.43848
H      6.32140   -7.12725    2.13267
H      4.39370   -8.40182    3.03773
H      5.96365   -4.94685    0.96706
H      2.07914   -7.52519    2.79972
H      0.88913   -1.05508   -1.96037
H      0.76226    1.27143   -2.24954
H     -1.20744    2.38313   -1.00121
H      0.33158    2.62894   -0.19109
H     -0.80861    1.40731    0.42814
H     -2.21796   -0.67990   -0.48276
H     -1.99033   -1.66639    0.86661
H      2.19334   -1.77507   -0.14772
