31

C     -5.15228    2.22728   -0.00588
C     -3.88668   -3.25672    2.97975
C     -5.26954   -3.17452    2.84742
C     -5.28290   -0.85775    3.66139
C     -1.66316   -0.66466    4.19894
C     -5.43533    3.15712    1.02467
C     -3.87907   -0.91710    3.77420
C     -2.86865    0.01676    4.23938
C     -3.20771   -2.12770    3.44944
C     -5.94373   -1.98613    3.19599
C     -5.05026    3.04813    2.34475
C     -6.15572    4.90185    2.03968
C     -3.02702    1.39752    4.70399
C     -6.73665    6.19451    2.48558
N     -4.87607    1.42026   -0.80403
N     -6.14801    4.35662    0.86939
N     -3.74243    2.33932    4.18415
N     -1.86118   -1.93854    3.72033
N     -4.41846    2.04681    3.02500
O     -5.49587    4.14088    3.00758
Br    -7.85463   -1.94064    3.02519
H     -3.36221   -4.17445    2.72744
H     -5.83363   -4.02595    2.48259
H     -5.83159    0.03649    3.93333
H     -0.67288   -0.31808    4.46445
H     -2.47120    1.70917    5.58647
H     -7.47353    6.04002    3.28031
H     -5.95767    6.85842    2.87458
H     -7.22172    6.67159    1.63346
H     -1.13158   -2.62013    3.56409
H     -4.12242    1.25172    2.45805
