37

C      5.19687   -4.75942    1.34306
C      5.14583   -3.67168    2.22539
C      4.05996   -5.16194    0.63109
C     -3.32381   -8.16378   -4.31667
C     -3.46434   -7.06766   -3.46370
C      3.95270   -2.96048    2.41553
C     -1.02723   -8.34108   -3.68535
C      2.87011   -4.45448    0.81927
C     -1.15240   -7.23447   -2.81866
C     -2.09390   -8.82558   -4.44175
C     -2.40225   -6.57180   -2.69625
C      2.84134   -3.37678    1.70074
C      1.51802   -4.64284    0.21242
C      0.05787   -6.84957   -2.09736
C     -1.94227  -10.02662   -5.34632
C     -2.62797   -5.38244   -1.79801
N      0.56451   -3.83079    0.56560
N      0.12307   -5.86817   -1.26618
N      1.33782   -5.65164   -0.68176
O      0.52795   -2.93056    2.99262
O      1.15767   -1.36914    1.10512
S      1.16039   -2.70854    1.69265
H      6.13059   -5.29798    1.20912
H      6.04005   -3.37694    2.76726
H      4.12728   -6.00917   -0.04708
H     -4.18093   -8.50721   -4.89253
H     -4.43172   -6.57647   -3.39123
H      3.90007   -2.11604    3.09612
H     -0.05893   -8.83313   -3.76541
H      0.94784   -7.46363   -2.30609
H     -2.40478   -9.84959   -6.32269
H     -0.88969  -10.27305   -5.51229
H     -2.42552  -10.90974   -4.91206
H     -2.40721   -5.61678   -0.75281
H     -1.96711   -4.54972   -2.05489
H     -3.66533   -5.04564   -1.87272
H      2.12760   -6.25208   -0.91342
