28   
Generated by ForceBalance from scan.xyz: Frame 1 of 24
C        0.9537875029   -0.4738281339   -0.4802213699
C       -1.0743261441    0.1526298342    0.3542077471
C        2.8414782121    0.6463284533   -1.7373038552
C       -0.5902736491   -1.6445993739    3.3218068091
C       -1.2530802191    0.5758485117   -4.2935740161
C        2.1383766922   -0.6753949817   -1.3734421839
C       -0.4325348333   -0.2318933996    2.7566849428
C       -0.3517324317   -0.0103638310   -3.2200133530
N        1.0437047561   -0.6067839292    0.8153992400
N       -0.3565399148   -0.1412709229   -0.8345505578
N       -0.1839160537   -0.2330656325    1.3264727668
O       -2.2052066619    0.6046920872    0.4599920286
O       -0.8323380794    0.5202375441   -1.9711538074
H        2.1689781673    1.3459424957   -2.2425966471
H        3.6933921997    0.4551306700   -2.3974809975
H        3.2104919136    1.1375003950   -0.8325567882
H        0.3112551009   -2.2358472749    3.1375912783
H       -0.7611364621   -1.6007012789    4.4025576912
H       -1.4411462905   -2.1525280811    2.8577947340
H       -2.2891975348    0.2627939073   -4.1424029748
H       -1.2131833584    1.6687024073   -4.2754493758
H       -0.9196989049    0.2342405536   -5.2786535807
H        2.8311318757   -1.3066172255   -0.8102325304
H        1.8608092690   -1.2311986496   -2.2721627768
H       -1.3427350692    0.3543459628    2.9022906085
H        0.3959045504    0.2928458956    3.2432263318
H        0.6871144213    0.2877479155   -3.3852984075
H       -0.4140241371   -1.1054562882   -3.1989844993
28   
Generated by ForceBalance from scan.xyz: Frame 2 of 24
C        1.0222637741   -0.4629313952   -0.4376796931
C       -1.0263619589    0.1516129094    0.3506018821
C        2.7747417003    0.7190226884   -1.8207254024
C       -0.6224531935   -1.6895243792    3.3097502097
C       -1.2234355912    0.6118287270   -4.2545567746
C        2.2091685889   -0.6275974925   -1.3305496998
C       -0.4462806292   -0.2718624982    2.7629379893
C       -0.4151371392   -0.1125397286   -3.1920900851
N        1.0819695185   -0.6183104891    0.8547806030
N       -0.2796557938   -0.1306922513   -0.8256504992
N       -0.1645847946   -0.2594225154    1.3389154855
O       -2.1561617332    0.6091297920    0.4350551340
O       -0.6416052998    0.6017486883   -1.9570986546
H        2.0283977516    1.3010896860   -2.3686381893
H        3.6330239892    0.5531518667   -2.4792778020
H        3.1061789188    1.3218279104   -0.9702872630
H        0.2808283547   -2.2825218399    3.1401504894
H       -0.8177092617   -1.6560545319    4.3867344205
H       -1.4643795633   -2.1893889793    2.8212802880
H       -2.2879603983    0.5948038540   -4.0075623515
H       -0.9024818613    1.6540645724   -4.3411303382
H       -1.0765145027    0.1249228673   -5.2238768237
H        2.9645401967   -1.1491490043   -0.7365649271
H        1.9644083776   -1.2762176896   -2.1771722773
H       -1.3570045598    0.3170129118    2.8941708743
H        0.3731182153    0.2441424025    3.2735874865
H        0.6495131357   -0.1033862683   -3.4435208847
H       -0.7444028958   -1.1506350868   -3.0678744734
28   
Generated by ForceBalance from scan.xyz: Frame 3 of 24
C        1.0743813161   -0.4115361797   -0.3982726916
C       -1.0069148576    0.1362213307    0.3589909939
C        2.7246420213    0.7773885514   -1.9092603447
C       -0.6159907570   -1.7410798135    3.2906203871
C       -1.1409847504    0.6448120648   -4.2412871639
C        2.2614485460   -0.5561384782   -1.2938078612
C       -0.4595042121   -0.3092988341    2.7754913378
C       -0.5655020747   -0.2087541034   -3.1260358518
N        1.1160902641   -0.5817168147    0.8928460879
N       -0.2236562304   -0.0956274434   -0.8016335788
N       -0.1502329375   -0.2616861017    1.3579586448
O       -2.1546766455    0.5512194340    0.4259566657
O       -0.5457829553    0.6267497933   -1.9446292124
H        1.9410721852    1.2375489165   -2.5164629058
H        3.6024086602    0.6147294213   -2.5423016926
H        2.9970927686    1.4868996854   -1.1223334361
H        0.3029428997   -2.3113941974    3.1273942862
H       -0.8329910732   -1.7335297331    4.3639334006
H       -1.4374115868   -2.2485110679    2.7757107504
H       -2.1531177906    0.9731529522   -3.9910039375
H       -0.5201986391    1.5286947251   -4.4153585146
H       -1.1787328138    0.0626177367   -5.1673227729
H        3.0574159726   -0.9793239551   -0.6752525960
H        2.0492901041   -1.2855718827   -2.0832283629
H       -1.3850376373    0.2574687251    2.9005977660
H        0.3386957277    0.2133196573    3.3121899062
H        0.4508309534   -0.5376801494   -3.3670583378
H       -1.1849636455   -1.0893167972   -2.9232627027
28   
Generated by ForceBalance from scan.xyz: Frame 4 of 24
C        1.1249648640   -0.3607313247   -0.3895600357
C       -0.9718762598    0.1682021639    0.3447537037
C        2.7811614270    0.8520122188   -1.8730744647
C       -0.6249164490   -1.7822691626    3.2257023974
C       -1.1444918339    0.5707848381   -4.2435881790
C        2.3102649972   -0.4926029793   -1.2885784018
C       -0.4637926360   -0.3345906212    2.7585174299
C       -0.7230064969   -0.2714113590   -3.0543827195
N        1.1486226849   -0.5537656221    0.8995502525
N       -0.1587002035   -0.0187097884   -0.7981061378
N       -0.1265915211   -0.2415819161    1.3495725282
O       -2.1291922962    0.5614903151    0.3958701857
O       -0.4596722205    0.6537698037   -1.9689208021
H        1.9971987616    1.3235613937   -2.4706627634
H        3.6583283814    0.6988951607   -2.5094529192
H        3.0571867279    1.5431535712   -1.0710766904
H        0.2992709352   -2.3440843024    3.0627872303
H       -0.8629059676   -1.8090035921    4.2942576969
H       -1.4342652909   -2.2760186356    2.6792856680
H       -2.0432911102    1.1464105080   -4.0070256814
H       -0.3498111012    1.2651893076   -4.5321448569
H       -1.3603777457   -0.0799226501   -5.0966503061
H        3.1040449914   -0.9427787745   -0.6864858860
H        2.0848981281   -1.1948709449   -2.0991683437
H       -1.3938149798    0.2249537248    2.8831214733
H        0.3218552623    0.1734466043    3.3266361208
H        0.1846137948   -0.8458345747   -3.2716301825
H       -1.5137262128   -0.9609334457   -2.7405328574
28   
Generated by ForceBalance from scan.xyz: Frame 5 of 24
C        1.1837302873   -0.3127115230   -0.4017468233
C       -0.9210498567    0.2219330502    0.3075450251
C        2.8987242677    0.9406741159   -1.7684378887
C       -0.6329399841   -1.8034584945    3.1325977313
C       -1.1653910075    0.4586867606   -4.2547070397
C        2.3689236803   -0.4283242513   -1.3018636444
C       -0.4607087777   -0.3412896475    2.7172678710
C       -0.8653537975   -0.3033900649   -2.9783838745
N        1.1880033387   -0.5233018547    0.8857529782
N       -0.0811699044    0.0683691445   -0.8155506534
N       -0.0914466540   -0.2023352287    1.3201735337
O       -2.0846507537    0.6025199109    0.3397229767
O       -0.3665100593    0.6700484260   -2.0221722170
H        2.1341895580    1.4905154036   -2.3230785208
H        3.7693052386    0.8069804785   -2.4182408494
H        3.2022199722    1.5470675601   -0.9098957634
H        0.2943423976   -2.3605832581    2.9714645571
H       -0.8945876041   -1.8652980023    4.1941361914
H       -1.4303863229   -2.2777575959    2.5524159955
H       -1.9176282470    1.2310690806   -4.0731200633
H       -0.2620770048    0.9344766489   -4.6481425455
H       -1.5507315446   -0.2308744217   -5.0120561344
H        3.1393633068   -0.9643525006   -0.7413670814
H        2.1113638256   -1.0432348892   -2.1716748215
H       -1.3933054564    0.2146408959    2.8388881341
H        0.3116871104    0.1470823553    3.3196590226
H       -0.1016797836   -1.0742077778   -3.1350983360
H       -1.7633203291   -0.7700948519   -2.5609002745
28   
Generated by ForceBalance from scan.xyz: Frame 6 of 24
C        1.2361793376   -0.2776853715   -0.3971799834
C       -0.8858016466    0.2349441738    0.2767418753
C        2.9882541474    0.9848934319   -1.7033816727
C       -0.6591937304   -1.8516472254    3.0484023314
C       -1.2753946712    0.3447113166   -4.2103526036
C        2.4278943767   -0.3881867579   -1.2882964087
C       -0.4777341110   -0.3773260667    2.6828849712
C       -0.9905946314   -0.3266015673   -2.8811915330
N        1.2161629212   -0.5076985734    0.8880901943
N       -0.0114114586    0.1330047072   -0.8207984330
N       -0.0731662504   -0.1950630826    1.3004345225
O       -2.0608669940    0.5858622444    0.2828602463
O       -0.2958933572    0.6550732196   -2.0604041705
H        2.2385439080    1.5661168314   -2.2465639558
H        3.8612559814    0.8569033012   -2.3511252299
H        3.2957324062    1.5565106231   -0.8227176309
H        0.2722618364   -2.4034457431    2.8932491379
H       -0.9472829281   -1.9463664688    4.1006335260
H       -1.4417296976   -2.3075402966    2.4341499262
H       -1.9048537767    1.2272787233   -4.0678516194
H       -0.3472239072    0.6506964231   -4.7023542897
H       -1.8016208480   -0.3535891974   -4.8684858475
H        3.1820784002   -0.9612323354   -0.7426439802
H        2.1600732773   -0.9637853128   -2.1817587867
H       -1.4136725055    0.1742860484    2.7985243064
H        0.2792075121    0.0923039155    3.3185719607
H       -0.3462969637   -1.2065831771   -2.9956661021
H       -1.9104466272   -0.6164269365   -2.3646350976
28   
Generated by ForceBalance from scan.xyz: Frame 7 of 24
C        1.2975257688   -0.2261904220   -0.3954414729
C       -0.8419823302    0.2580030933    0.2395417324
C        3.0562179318    1.0350097800   -1.6954450390
C       -0.6907911484   -1.8946966052    2.9348165734
C       -1.3456481780    0.2461233290   -4.1698248422
C        2.5006807680   -0.3366447593   -1.2704013676
C       -0.4886152231   -0.4074110810    2.6388961223
C       -1.0772796661   -0.3238635208   -2.7909396495
N        1.2531958125   -0.4708768079    0.8874568805
N        0.0656471057    0.2114659132   -0.8314518084
N       -0.0451558111   -0.1681894742    1.2769550766
O       -2.0279058075    0.5756114933    0.2203758304
O       -0.2193644727    0.6364863484   -2.1070862074
H        2.3106471900    1.6021708616   -2.2589001089
H        3.9400078803    0.9053420842   -2.3279851876
H        3.3454175650    1.6217650688   -0.8184692498
H        0.2401403586   -2.4473449388    2.7794493701
H       -1.0067597188   -2.0326813547    3.9741879201
H       -1.4609978418   -2.3162519523    2.2816767601
H       -1.8542849240    1.2111205523   -4.0946008817
H       -0.4144633382    0.3819362356   -4.7281375711
H       -1.9879995010   -0.4402273999   -4.7301953500
H        3.2515906781   -0.8989941457   -0.7094459394
H        2.2451754748   -0.9232656266   -2.1604690858
H       -1.4232206736    0.1463658708    2.7548599066
H        0.2552458166    0.0277532646    3.3129471902
H       -0.5516016586   -1.2854550457   -2.8385643254
H       -1.9959576775   -0.4383373755   -2.2096536696
28   
Generated by ForceBalance from scan.xyz: Frame 8 of 24
C        1.3438329898   -0.1950535468   -0.3893637746
C       -0.8080318103    0.2634735823    0.2149194229
C        3.1114619785    1.0696649573   -1.6741602965
C       -0.6920599772   -1.9307562764    2.8683532651
C       -1.3576583951    0.1609908096   -4.1488471124
C        2.5560768791   -0.3025670570   -1.2515708846
C       -0.4937783237   -0.4362447874    2.6083597783
C       -1.1549081752   -0.2963505079   -2.7176354850
N        1.2814820536   -0.4545876286    0.8899784089
N        0.1246259249    0.2680928477   -0.8354904344
N       -0.0244734255   -0.1652415456    1.2608320430
O       -2.0006282307    0.5590268533    0.1825850148
O       -0.1486545931    0.5930720376   -2.1456251365
H        2.3703172626    1.6321128181   -2.2482577138
H        4.0024562962    0.9414270183   -2.2967735555
H        3.3887088633    1.6607016691   -0.7961495112
H        0.2451726837   -2.4743853755    2.7192327423
H       -1.0270291770   -2.0929715540    3.8982276151
H       -1.4470292465   -2.3426209428    2.1916651653
H       -1.7147493313    1.1942327680   -4.1759925007
H       -0.4273740505    0.0953756610   -4.7211346491
H       -2.1065895272   -0.4747527966   -4.6312921211
H        3.3025359132   -0.8628220560   -0.6827318462
H        2.3087908159   -0.8897909480   -2.1435186469
H       -1.4340475769    0.1091702682    2.7176073645
H        0.2340730320   -0.0110393837    3.3056407058
H       -0.7749605920   -1.3243570219   -2.6649006315
H       -2.0683411217   -0.2137114864   -2.1252805139
28   
Generated by ForceBalance from scan.xyz: Frame 9 of 24
C        1.3680238242   -0.1712861916   -0.3950342871
C       -0.7958468801    0.2394496767    0.1922887187
C        3.1218763512    1.1141044586   -1.6792081424
C       -0.6628508726   -1.9587616621    2.8368425210
C       -1.3361961983    0.1034465574   -4.1683227098
C        2.5859689289   -0.2638612044   -1.2505506631
C       -0.4878595584   -0.4599329460    2.5850527700
C       -1.2554390573   -0.2121695282   -2.6873132249
N        1.3026038783   -0.4360824200    0.8828264865
N        0.1476886334    0.2844002625   -0.8489563856
N       -0.0110540471   -0.1751577087    1.2428680343
O       -1.9951663991    0.5105902453    0.1612403854
O       -0.1037332602    0.5311676739   -2.1857107652
H        2.3749749621    1.6609758674   -2.2609370064
H        4.0176422367    0.9958535131   -2.2969243445
H        3.3855895925    1.7155273114   -0.8040335341
H        0.2846705925   -2.4858032318    2.6932389330
H       -1.0035512181   -2.1312764121    3.8631630877
H       -1.4051216137   -2.3802387493    2.1520867316
H       -1.4795885971    1.1759502212   -4.3277422553
H       -0.4285057854   -0.2111010616   -4.6920959819
H       -2.1893925882   -0.4251115754   -4.6049085994
H        3.3380976607   -0.8094660334   -0.6750019566
H        2.3503037779   -0.8590583111   -2.1402067979
H       -1.4381621926    0.0689128051    2.6884064622
H        0.2268686894   -0.0255101468    3.2900650899
H       -1.0823994430   -1.2803524459   -2.5053086272
H       -2.1459208776    0.1049181616   -2.1437566971
28   
Generated by ForceBalance from scan.xyz: Frame 10 of 24
C        1.3783101255   -0.1751432939   -0.3801781879
C       -0.8036188498    0.1696812665    0.1788448870
C        3.1017178297    1.1399630366   -1.6773080265
C       -0.6242335408   -1.9830676031    2.8578577907
C       -1.3122014346    0.0726215421   -4.1921111898
C        2.6073194005   -0.2449108151   -1.2219297334
C       -0.4974215592   -0.4832414465    2.5841396328
C       -1.3424888220   -0.0948709743   -2.6846504697
N        1.3090449202   -0.4252357944    0.9006028861
N        0.1495178554    0.2347614278   -0.8537938360
N       -0.0151332663   -0.2033702989    1.2427594049
O       -2.0107006228    0.4054365999    0.1424773565
O       -0.0659013805    0.4260304383   -2.2118236710
H        2.3436267971    1.6480980170   -2.2792684068
H        4.0075199062    1.0373230720   -2.2830751421
H        3.3361869031    1.7699513932   -0.8139219789
H        0.3420761421   -2.4797267664    2.7323478545
H       -0.9699620096   -2.1511180572    3.8832532025
H       -1.3443381950   -2.4401404321    2.1722752998
H       -1.2064687214    1.1269055412   -4.4639246651
H       -0.4861127292   -0.4892157967   -4.6381341521
H       -2.2516880191   -0.2973730049   -4.6146361109
H        3.3709252617   -0.7510376217   -0.6257471299
H        2.4008407635   -0.8681849157   -2.0993894232
H       -1.4662189878    0.0143944558    2.6686338641
H        0.1942157961   -0.0138179968    3.2897552832
H       -1.4214029189   -1.1488140035   -2.3926271533
H       -2.1554112014    0.4601189464   -2.2173119985
28   
Generated by ForceBalance from scan.xyz: Frame 11 of 24
C        1.3916122700   -0.1987781697   -0.3752389450
C       -0.8139518880    0.0444067241    0.1438869041
C        3.0605039533    1.1585880032   -1.7012693357
C       -0.5576735413   -1.9777787277    2.9114653153
C       -1.3008630765    0.1058482537   -4.2370475565
C        2.6358760616   -0.2325618137   -1.1969959557
C       -0.5038047885   -0.4857623029    2.5775480347
C       -1.3834782903    0.0080532008   -2.7250394385
N        1.3194189432   -0.3991244655    0.9146833229
N        0.1478868366    0.1079005715   -0.8816478771
N       -0.0184820782   -0.2366546855    1.2310670168
O       -2.0318308879    0.2147910234    0.0927961136
O       -0.0270990695    0.2514737265   -2.2558123082
H        2.2854738909    1.5993033785   -2.3338728955
H        3.9803533190    1.0823879123   -2.2895438970
H        3.2462192088    1.8343197849   -0.8608701284
H        0.4342421964   -2.4287218349    2.8169763856
H       -0.9077546180   -2.1217102096    3.9390730521
H       -1.2445161773   -2.4985902966    2.2373452586
H       -0.9556386488    1.0968806151   -4.5460319536
H       -0.6199659029   -0.6463176845   -4.6463518264
H       -2.2957358129   -0.0591030171   -4.6625132042
H        3.4164464960   -0.6695754105   -0.5689200554
H        2.4795556782   -0.9018537229   -2.0504243579
H       -1.4976865087   -0.0356344987    2.6307897128
H        0.1541496623    0.0469380052    3.2703136272
H       -1.7033747193   -0.9860185257   -2.3967988143
H       -2.0581786690    0.7488487710   -2.2958299906
28   
Generated by ForceBalance from scan.xyz: Frame 12 of 24
C        1.2544427811   -0.2439334358   -0.4581522654
C       -0.6556478582    0.7728987491    0.2589518601
C        1.8893487001   -1.5913429318   -2.4990049015
C        0.2886680062    0.6153228351    3.5540825762
C       -0.6281156097    2.6035965133   -3.7584573271
C        2.3596113134   -0.6517904701   -1.3736021382
C       -0.5444128102   -0.2048181060    2.5672667130
C       -0.8544971969    2.1141478152   -2.3400346008
N        1.0855139884   -0.6598869734    0.7702853820
N        0.2356310985    0.6075326564   -0.8175476246
N       -0.0845101120   -0.0566224629    1.1971178516
O       -1.6718188100    1.4622922405    0.3469149472
O        0.2382810581    1.1879217766   -2.0851381839
H        1.4588984538   -2.5072838651   -2.0829345321
H        2.7342445360   -1.8688451657   -3.1371193000
H        1.1340068426   -1.1065643372   -3.1231149535
H        0.2204247264    1.6823727584    3.3215354789
H       -0.0761622019    0.4607227850    4.5750051405
H        1.3394049372    0.3147087640    3.5121968778
H        0.3354138566    3.1135344791   -3.8500176113
H       -0.6548399743    1.7732708411   -4.4703442489
H       -1.4197839760    3.3111153064   -4.0241626234
H        2.8132194777    0.2461159152   -1.8072947049
H        3.1157969859   -1.1424345472   -0.7553272099
H       -0.5079530546   -1.2698236757    2.8144651815
H       -1.5886565224    0.1156081403    2.5744041836
H       -1.8076757971    1.5925954726   -2.2313716546
H       -0.8199877338    2.9282701406   -1.6129739254
28   
Generated by ForceBalance from scan.xyz: Frame 13 of 24
C        1.2205505500   -0.2833520051   -0.5056457265
C       -0.7582657562    0.6031038577    0.1965184992
C        1.9386483640   -1.6561568906   -2.5008664139
C        0.2531810579    0.7218961883    3.4737182538
C       -0.6056097595    2.6796856993   -3.6888923219
C        2.3438143957   -0.6361222853   -1.4212673226
C       -0.5201407947   -0.2250113204    2.5539725803
C       -0.8135347748    2.1621342894   -2.2776937877
N        1.1095605585   -0.6423879526    0.7465598053
N        0.1105732011    0.4319776363   -0.8973911839
N       -0.1000714877   -0.1165591084    1.1674660111
O       -1.8272113714    1.2091279999    0.2661323104
O        0.0683634453    1.0096923965   -2.1641117392
H        1.5911248950   -2.5868797589   -2.0422974692
H        2.7950494816   -1.8883616950   -3.1417025973
H        1.1372194444   -1.2614676004   -3.1310904976
H        0.0850023736    1.7633697542    3.1831030297
H       -0.0781002597    0.5952891517    4.5098125291
H        1.3258484173    0.5139314318    3.4250928936
H        0.4333785637    2.9813548594   -3.8514791453
H       -0.8691774930    1.9168882565   -4.4274491189
H       -1.2486179076    3.5505747465   -3.8503097964
H        2.7129579678    0.2782771342   -1.8989138813
H        3.1473679768   -1.0344970710   -0.7965218666
H       -0.3836711212   -1.2662816242    2.8599201734
H       -1.5887447204    0.0012264629    2.5672224844
H       -1.8432666016    1.8553311440   -2.0940307811
H       -0.5318509525    2.9048891163   -1.5244920226
28   
Generated by ForceBalance from scan.xyz: Frame 14 of 24
C        1.2043608401   -0.2934639532   -0.4927544826
C       -0.8197569174    0.4943766377    0.1960641690
C        1.9908568769   -1.6723244862   -2.4580393837
C        0.2241721886    0.7846256872    3.4621101160
C       -0.5926680216    2.6778680875   -3.6189210147
C        2.3416190149   -0.6049738687   -1.4057066718
C       -0.5117632666   -0.2269956707    2.5814800739
C       -0.7186978478    2.1847526585   -2.1898086378
N        1.1252039091   -0.6116732548    0.7722434745
N        0.0429793167    0.3274692535   -0.9025140247
N       -0.1109498851   -0.1436258769    1.1876969928
O       -1.9200281864    1.0427131525    0.2478205319
O       -0.0615652936    0.8838425222   -2.1700925876
H        1.6973556061   -2.6094253873   -1.9753440372
H        2.8569611956   -1.8720934287   -3.0967266798
H        1.1665253672   -1.3391586741   -3.0942290808
H        0.0034585262    1.8071844668    3.1409452127
H       -0.0905689346    0.6754378556    4.5052887431
H        1.3050464694    0.6266041744    3.4080725769
H        0.4561000588    2.7795963437   -3.9134664945
H       -1.0866060086    1.9907558570   -4.3120865379
H       -1.0741908970    3.6569579399   -3.7059650166
H        2.6555036334    0.3170875310   -1.9080191547
H        3.1699657344   -0.9403305953   -0.7763666524
H       -0.3236833625   -1.2501067735    2.9198207397
H       -1.5897887760   -0.0511655156    2.5986454221
H       -1.7557389584    2.0713173824   -1.8752618813
H       -0.2061410856    2.8476923958   -1.4826326878
28   
Generated by ForceBalance from scan.xyz: Frame 15 of 24
C        1.1958356663   -0.2839568756   -0.5061407240
C       -0.8559904127    0.4354202397    0.1783244415
C        2.0223814060   -1.6650182770   -2.4521165437
C        0.1819625704    0.7984745191    3.4391285939
C       -0.6330405066    2.6601727631   -3.6066710381
C        2.3393539469   -0.5673452670   -1.4204305350
C       -0.5178611584   -0.2491909998    2.5712835475
C       -0.5802251653    2.2177170359   -2.1571994016
N        1.1287143688   -0.5928301879    0.7616990672
N        0.0119391274    0.2917593894   -0.9182755299
N       -0.1241414422   -0.1656963838    1.1756066372
O       -1.9713874284    0.9522106349    0.2191410753
O       -0.1566392284    0.8211385033   -2.1841185245
H        1.7674166882   -2.6039187397   -1.9514731115
H        2.8911321124   -1.8430586033   -3.0936204108
H        1.1817688187   -1.3739298152   -3.0877082496
H       -0.0771440687    1.8086250295    3.1075292727
H       -0.1263124332    0.6890804144    4.4841988965
H        1.2678330759    0.6799361088    3.3841070343
H        0.3472742637    2.5737239001   -4.0848865150
H       -1.3521312048    2.0575695968   -4.1688258672
H       -0.9511302459    3.7063462675   -3.6542624287
H        2.6150888354    0.3569944302   -1.9408651500
H        3.1842370296   -0.8597712236   -0.7917028580
H       -0.2910383275   -1.2609313219    2.9198948138
H       -1.6016953538   -0.1135601459    2.5898070655
H       -1.5508427194    2.2841841066   -1.6648172585
H        0.1571246425    2.7907279047   -1.5809553566
28   
Generated by ForceBalance from scan.xyz: Frame 16 of 24
C        1.1895246591   -0.2557482225   -0.4876599634
C       -0.8827534971    0.4161265997    0.1906958007
C        2.0391942483   -1.6299963006   -2.4278205247
C        0.1378940433    0.7828418791    3.4602443755
C       -0.6863506284    2.6241778525   -3.6094357710
C        2.3380451810   -0.5225679391   -1.4010072308
C       -0.5394237665   -0.2721291241    2.5834544385
C       -0.4465326815    2.2311923430   -2.1648998425
N        1.1216200579   -0.5707361115    0.7788847200
N        0.0011486422    0.3108554135   -0.8959817632
N       -0.1430526512   -0.1725001024    1.1897233544
O       -2.0068051233    0.9124825763    0.2193681875
O       -0.2340840072    0.7870052162   -2.1666869790
H        1.8007581360   -2.5706336334   -1.9224066254
H        2.9105745305   -1.7962304076   -3.0689336688
H        1.1930963181   -1.3563181485   -3.0637846019
H       -0.1383115746    1.7901234775    3.1337309744
H       -0.1722037369    0.6614986561    4.5034489217
H        1.2259324918    0.6844378070    3.4086002458
H        0.1733596976    2.3703137171   -4.2368904333
H       -1.5713898368    2.1176967672   -4.0044332115
H       -0.8522589264    3.7042897216   -3.6698808762
H        2.6001156028    0.4038682462   -1.9250191934
H        3.1878219074   -0.7986651551   -0.7714716857
H       -0.2954171614   -1.2816699484    2.9270345811
H       -1.6256750571   -0.1566459860    2.5990059398
H       -1.3053153072    2.4550056278   -1.5289172335
H        0.4503896092    2.7101180495   -1.7524684858
28   
Generated by ForceBalance from scan.xyz: Frame 17 of 24
C        1.1713699509   -0.2048307957   -0.4732859338
C       -0.9100219192    0.4292759232    0.2202791710
C        2.0177394177   -1.5646911703   -2.4247189866
C        0.1088837082    0.7293670404    3.5050601957
C       -0.7235294084    2.5661814768   -3.6650014780
C        2.3159299799   -0.4588510224   -1.3956816093
C       -0.5561410659   -0.3081607754    2.5985510222
C       -0.3584455341    2.2360260044   -2.2311380706
N        1.1084991142   -0.5422957794    0.7876190139
N       -0.0135489050    0.3829516733   -0.8600856235
N       -0.1602543804   -0.1654072838    1.2086992077
O       -2.0432424365    0.9010197241    0.2506770928
O       -0.3209924604    0.7813469382   -2.1391073639
H        1.7914986551   -2.5089103646   -1.9204665620
H        2.8854422161   -1.7215227281   -3.0731791447
H        1.1639139687   -1.2960101477   -3.0522726950
H       -0.1773162376    1.7423211093    3.2058439456
H       -0.2012155008    0.5761764638    4.5440707284
H        1.1979685512    0.6438313517    3.4523696132
H        0.0176185672    2.1647649394   -4.3627300098
H       -1.7037990822    2.1525369448   -3.9171062110
H       -0.7642446467    3.6525650829   -3.7908001808
H        2.5708418540    0.4712306897   -1.9168372968
H        3.1715511064   -0.7329569137   -0.7731504680
H       -0.3016877130   -1.3241451553    2.9148708868
H       -1.6436356949   -0.2049375466    2.6159770590
H       -1.1050398471    2.6056806398   -1.5233800735
H        0.6298547658    2.6259143416   -1.9581663644
28   
Generated by ForceBalance from scan.xyz: Frame 18 of 24
C        1.1521660911   -0.1369633798   -0.4482686837
C       -0.9355353151    0.4529676696    0.2681248417
C        1.9902905675   -1.4908399267   -2.4064982107
C        0.0884015103    0.6422790639    3.5778967212
C       -0.7182499841    2.4744291596   -3.7524324088
C        2.2888539719   -0.3783548821   -1.3842997582
C       -0.5679660816   -0.3556662436    2.6220833435
C       -0.2737542319    2.2245167751   -2.3247034435
N        1.1005542729   -0.5008685335    0.8047898391
N       -0.0308003134    0.4754275978   -0.8091242697
N       -0.1693899017   -0.1453537510    1.2418817225
O       -2.0820726510    0.8864256416    0.3075555345
O       -0.3997234727    0.7922505933   -2.0950728524
H        1.7859874830   -2.4367161647   -1.8961670240
H        2.8498323823   -1.6368995046   -3.0682681229
H        1.1222992513   -1.2363332964   -3.0202964022
H       -0.2015736372    1.6665385443    3.3243359048
H       -0.2246222642    0.4398879011    4.6075721166
H        1.1781100677    0.5647083092    3.5255444680
H       -0.0887195986    1.9276637290   -4.4609038370
H       -1.7567430400    2.1620243052   -3.8916715884
H       -0.6446679593    3.5428584304   -3.9776464781
H        2.5288902943    0.5526867889   -1.9104755309
H        3.1553490614   -0.6422194097   -0.7723554643
H       -0.3085892871   -1.3838578954    2.8922416219
H       -1.6561210177   -0.2596102780    2.6404334768
H       -0.9092090980    2.7450533149   -1.6020731544
H        0.7714548685    2.5146560997   -2.1636178371
28   
Generated by ForceBalance from scan.xyz: Frame 19 of 24
C        1.1280049065   -0.0683793153   -0.4138712949
C       -0.9580559240    0.4850121098    0.3353228964
C        1.9407846727   -1.3593317692   -2.4276371067
C        0.0798034847    0.5749768883    3.6487180878
C       -0.7089465445    2.3747167608   -3.8229778414
C        2.2596585889   -0.2954956224   -1.3604580907
C       -0.5678211347   -0.3964443904    2.6601329478
C       -0.1848321491    2.1982338077   -2.4110026023
N        1.0889927609   -0.4666180708    0.8279419097
N       -0.0519943126    0.5768279918   -0.7420747127
N       -0.1784400296   -0.1311582393    1.2870120485
O       -2.1145157096    0.8844088051    0.3917392395
O       -0.4786826767    0.8274276343   -2.0285046665
H        1.7153525507   -2.3202510117   -1.9556807460
H        2.8000680004   -1.4972056932   -3.0914690576
H        1.0797874095   -1.0644482299   -3.0327415392
H       -0.2238273557    1.6039150714    3.4329673437
H       -0.2265188875    0.3319859644    4.6716093970
H        1.1702254098    0.5131512873    3.5898509725
H       -0.2144006548    1.6849638418   -4.5134587068
H       -1.7865781821    2.1933607225   -3.8581177660
H       -0.5175113460    3.3980142239   -4.1603808955
H        2.5271875985    0.6497530857   -1.8462598860
H        3.1173427490   -0.6053880291   -0.7576382846
H       -0.2937650708   -1.4302259029    2.8921197419
H       -1.6570527608   -0.3157364204    2.6863047881
H       -0.6829929738    2.8690160593   -1.7037180070
H        0.8980319061    2.3599641898   -2.3558383078
28   
Generated by ForceBalance from scan.xyz: Frame 20 of 24
C        1.1093684250   -0.0154583661   -0.3903742327
C       -0.9763487685    0.5234153367    0.3681001621
C        1.9248840892   -1.2057937402   -2.4719823510
C        0.0538264186    0.4982923887    3.7058831476
C       -0.7425927929    2.2528985379   -3.8974225464
C        2.2551383960   -0.2354321226   -1.3227846677
C       -0.5949809908   -0.4214857974    2.6699667975
C       -0.0693347444    2.1021538439   -2.5464408728
N        1.0702577678   -0.4303294035    0.8449516323
N       -0.0645761943    0.6584667788   -0.7055096880
N       -0.1932550329   -0.0978232051    1.3130142610
O       -2.1396493046    0.8975879583    0.4267480499
O       -0.5431169827    0.8497029009   -1.9892112422
H        1.6354903433   -2.1840815403   -2.0766669068
H        2.8014981595   -1.3417669558   -3.1129983752
H        1.1013397198   -0.8321299911   -3.0853459611
H       -0.2389394760    1.5386985147    3.5348925173
H       -0.2621043315    0.2118206523    4.7144943244
H        1.1440964329    0.4294346816    3.6520662595
H       -0.4751538704    1.4259127717   -4.5619148520
H       -1.8297623750    2.2733659189   -3.7843604513
H       -0.4219427047    3.1887957360   -4.3654262513
H        2.5927262969    0.7248695704   -1.7288729226
H        3.0735187335   -0.6316492315   -0.7157188300
H       -0.3320545669   -1.4672486022    2.8577695028
H       -1.6836086778   -0.3320709820    2.6914160241
H       -0.3399337479    2.9127379595   -1.8616792201
H        1.0216523471    2.0678055945   -2.6439477465
28   
Generated by ForceBalance from scan.xyz: Frame 21 of 24
C        1.1049677414    0.0462318344   -0.3699636959
C       -0.9896632693    0.5503865041    0.3807871013
C        1.9480501248   -1.1275827079   -2.4503524263
C        0.0158283191    0.4383578917    3.7380506480
C       -0.7552956286    2.1784944684   -3.9465646214
C        2.2654050595   -0.1715952309   -1.2853782568
C       -0.6237233559   -0.4436972770    2.6644048191
C        0.0503729989    1.9768602775   -2.6761877547
N        1.0595856859   -0.3881408624    0.8576991464
N       -0.0667466402    0.7368667591   -0.6807382829
N       -0.2074770934   -0.0735155708    1.3238571295
O       -2.1617799260    0.8934321832    0.4327902511
O       -0.5858103375    0.8920309701   -1.9602936930
H        1.6531336495   -2.1095939772   -2.0688583075
H        2.8318915675   -1.2570992761   -3.0825873826
H        1.1309863056   -0.7519696612   -3.0715091997
H       -0.2735249501    1.4846177207    3.6002800458
H       -0.3108788931    0.1174218892    4.7327339285
H        1.1064976344    0.3696082689    3.6931512231
H       -0.7593455842    1.2680752696   -4.5532567225
H       -1.7886873176    2.4438620228   -3.7088450095
H       -0.3118702586    2.9850417520   -4.5387823557
H        2.6262116597    0.7888267546   -1.6696371826
H        3.0652143482   -0.5875073499   -0.6668622142
H       -0.3652927352   -1.4961187954    2.8193653235
H       -1.7123065656   -0.3525077078    2.6769003074
H        0.0427978778    2.8692954595   -2.0407548230
H        1.0881755317    1.7139351449   -2.9065166054
28   
Generated by ForceBalance from scan.xyz: Frame 22 of 24
C        1.0925184662    0.1376199879   -0.3762194306
C       -1.0119146065    0.5658928984    0.3879045266
C        1.9902142443   -1.1308889105   -2.3677097694
C       -0.0072508626    0.3933390633    3.7442992547
C       -0.8278496265    2.2732928025   -3.9142932489
C        2.2579047428   -0.0631913169   -1.2897972975
C       -0.6197170045   -0.4764113326    2.6450985266
C        0.1016262097    1.8705680020   -2.7825778486
N        1.0596871292   -0.3256985743    0.8413291617
N       -0.0930122559    0.8203876170   -0.6664521391
N       -0.2126737439   -0.0565282747    1.3164329508
O       -2.1952447620    0.8647436670    0.4455970225
O       -0.6604213205    0.9874350373   -1.9304850256
H        1.7913008434   -2.0991939558   -1.8994275322
H        2.8619406347   -1.2379166257   -3.0207726932
H        1.1251998821   -0.8786094433   -2.9875047746
H       -0.3264169321    1.4342608034    3.6351188528
H       -0.3258421295    0.0354029838    4.7289431796
H        1.0850218432    0.3573296109    3.6998415656
H       -1.1676257326    1.3928972599   -4.4676623640
H       -1.7034142065    2.7993651687   -3.5255221209
H       -0.2974471426    2.9326025550   -4.6087199438
H        2.5525196613    0.8854183161   -1.7488464650
H        3.0887146384   -0.3822968433   -0.6547013299
H       -0.3308864722   -1.5248233667    2.7709106599
H       -1.7104783861   -0.4173170998    2.6578951324
H        0.4273035694    2.7372135682   -2.1957674089
H        0.9824927516    1.3518188951   -3.1721354607
28   
Generated by ForceBalance from scan.xyz: Frame 23 of 24
C        1.0495825949    0.2028613206   -0.3997245310
C       -1.0515115615    0.5917329552    0.3978701731
C        2.0750130699   -1.1531610179   -2.2727078291
C       -0.0089868489    0.3376014637    3.7321202302
C       -0.8254949582    2.3316640367   -3.9304610139
C        2.2347175879    0.0293490560   -1.2980964069
C       -0.6314380581   -0.5096573009    2.6209510688
C        0.0964056669    1.7738553012   -2.8592204903
N        1.0274213553   -0.2949197350    0.8069713978
N       -0.1473125526    0.8762966011   -0.6586303897
N       -0.2419871069   -0.0582258004    1.2973747576
O       -2.2353692111    0.8860961283    0.4770689779
O       -0.7638443613    1.1609600603   -1.8812141436
H        1.9641157268   -2.0875437008   -1.7153762261
H        2.9566504799   -1.2381201577   -2.9158606065
H        1.1949443576   -1.0438012991   -2.9134546398
H       -0.3333161090    1.3794016906    3.6499951348
H       -0.3147346990   -0.0435393500    4.7121174413
H        1.0827744390    0.3068981221    3.6739756055
H       -1.4336580338    1.5349613450   -4.3682423725
H       -1.4929819982    3.0885191022   -3.5109058129
H       -0.2284531353    2.7876806019   -4.7265833624
H        2.4558081935    0.9535469285   -1.8372027571
H        3.0834196140   -0.1637747198   -0.6363074072
H       -0.3378469807   -1.5596169662    2.7197715556
H       -1.7221130039   -0.4543937593    2.6477345900
H        0.6827501239    2.5688176038   -2.3819528859
H        0.7766633460    1.0317549922   -3.2857544564
28   
Generated by ForceBalance from scan.xyz: Frame 24 of 24
C        0.9414098148   -0.4403617580   -0.4684468536
C       -1.0593410262    0.2212863747    0.4213482643
C        2.9253686154    0.5772044272   -1.6814615738
C       -0.6585532622   -1.6452733972    3.2510289726
C       -1.3361229973    0.4507100047   -4.2638211028
C        2.1148301413   -0.6947988968   -1.3686257260
C       -0.3784897587   -0.2103738295    2.7996068015
C       -0.3557027250    0.0461778901   -3.1758220093
N        1.0708439319   -0.5346105206    0.8326688150
N       -0.3286592985    0.0330224863   -0.7687825511
N       -0.1255797030   -0.1174036008    1.3725945270
O       -2.2202156192    0.5880409773    0.5518346023
O       -1.0617512211    0.2278793063   -1.9404033848
H        2.3273388137    1.3287614097   -2.2052568490
H        3.7873013313    0.3321069078   -2.3103311867
H        3.2911993755    1.0283819386   -0.7550659340
H        0.1894046882   -2.2948959508    3.0154206288
H       -0.8275442967   -1.6743154247    4.3326418840
H       -1.5497293627   -2.0376840406    2.7521522719
H       -2.2372531924   -0.1666805313   -4.2200746699
H       -1.6254782774    1.4989817435   -4.1532096952
H       -0.8680202252    0.3163985849   -5.2440036952
H        2.7510142133   -1.3943610799   -0.8197625161
H        1.8147915767   -1.1984138484   -2.2885498010
H       -1.2359158815    0.4364664914    2.9990756795
H        0.4928551427    0.2010140642    3.3172760115
H        0.5381928955    0.6774165119   -3.1999882740
H       -0.0618022167   -1.0043187523   -3.2884365053
