25   

C       -0.2394542780   -5.5681374173   -3.7790585472
C        0.0371698173   -4.7721853992   -2.5916559570
C       -0.4762089199   -4.7867473660   -4.8794522865
C       -0.0320743089   -1.0294296786   -1.8552107009
C        0.2404608229   -2.3720519471   -1.8595235012
C       -0.0001617853   -3.4173698093   -2.8393193816
C        0.4367673211   -0.5476013050   -0.5688652166
C       -2.2025690613   -0.3142744783   -2.9222603442
C        0.3307971777    0.8454421487   -0.0217313815
C       -0.6832566821   -0.1624552235   -2.9153016366
N        0.9374679718   -1.5381735645    0.1208474255
N        0.8188893528   -2.6537362351   -0.6506856914
O       -2.7561084729   -0.5384160598   -3.9863032734
O       -2.8670042723   -0.1639153362   -1.7486628790
S       -0.3707744533   -3.0698988982   -4.5109459257
H       -0.2590965425   -6.6526580009   -3.7915475099
H        0.2371220511   -5.2145181338   -1.6235391614
H       -0.7057016113   -5.1694994225   -5.8672813007
H       -0.5539611964    1.3487716096   -0.4195615709
H        0.2574787546    0.8139219017    1.0691784668
H        1.2215030624    1.4166054990   -0.2961437209
H       -0.2779033016   -0.3949026074   -3.9020404011
H       -0.4505383802    0.8884055576   -2.7297406575
H        1.1440010134   -3.5779749089   -0.3797189764
H       -3.8067503091   -0.3117041949   -1.9414171969
25   

C       -0.2555247983   -5.4380138536   -4.0003945041
C       -0.1126029473   -4.6790522526   -2.7661238470
C       -0.1104074812   -4.6471887877   -5.1106667004
C        0.0582133421   -1.0041052710   -1.9074920368
C        0.3398292724   -2.3406023283   -1.9612229066
C        0.1325320198   -3.3438956784   -2.9927386050
C        0.4917198997   -0.5759478024   -0.5902256751
C       -2.1106296340   -0.2647426858   -2.9049893679
C        0.3750195953    0.7945904391    0.0089256428
C       -0.5933418161   -0.1148992586   -2.9450577979
N        0.9684914304   -1.5968541912    0.0732782360
N        0.8747282051   -2.6797696321   -0.7478975860
O       -2.6548035287   -0.9382225184   -3.7645144302
O       -2.7859373311    0.4097594270   -1.9409654330
S        0.2027502305   -2.9659761450   -4.6950898536
H       -0.4583644276   -6.5029336184   -4.0377892869
H       -0.2070204657   -5.1233331440   -1.7824824115
H       -0.1834442699   -5.0033143477   -6.1317548062
H       -0.4737894886    1.3331052143   -0.4195747756
H        0.2349158024    0.7183530562    1.0910150054
H        1.2907062821    1.3590334226   -0.1853661554
H       -0.2231669598   -0.3445452874   -3.9457148685
H       -0.3418341246    0.9308587846   -2.7527645892
H        1.1987817569   -3.6150722313   -0.5141164224
H       -3.7244246575    0.1892804672   -2.0566510303
25   

C       -0.3044382347   -5.3574895378   -4.0030347105
C       -0.2513704352   -4.5822794856   -2.7714652905
C        0.1189662193   -4.6320533370   -5.0876485345
C        0.0848226160   -0.9704016668   -1.8991121442
C        0.3992661791   -2.2969924972   -1.9443949881
C        0.2026457551   -3.3020727775   -2.9789424208
C        0.5154405683   -0.5232345983   -0.5869987927
C       -2.1300354236   -0.2407962902   -2.7812421710
C        0.4159804917    0.8578826765   -0.0094881451
C       -0.6179389385   -0.1331398910   -2.9454595990
N        1.0377500320   -1.5254091570    0.0726071503
N        0.9749828727   -2.6141193461   -0.7450194134
O       -2.7476997814   -0.9814683546   -3.5286022776
O       -2.7200071589    0.5372980728   -1.8396096600
S        0.5926513949   -2.9929134980   -4.6525641157
H       -0.6440418980   -6.3862351600   -4.0573423426
H       -0.5503453286   -4.9692222744   -1.8041725802
H        0.1562445970   -5.0120370342   -6.1020630725
H       -0.4937710958    0.9355529541    0.5919523028
H        1.2767245446    1.0551262280    0.6357566946
H        0.3823579024    1.6120407678   -0.7984773530
H       -0.3356114294   -0.4486216941   -3.9515733611
H       -0.3285500749    0.9155521025   -2.8494245861
H        1.3346421976   -3.5381378280   -0.5166785554
H       -3.6682131948    0.3297545376   -1.8664800151
25   

C       -0.3666270973   -5.3332134440   -4.0360281653
C       -0.3988747645   -4.5441299802   -2.8122416809
C        0.3017808395   -4.6905659333   -5.0482227379
C        0.0442351791   -1.0231702106   -1.8738628689
C        0.4144036417   -2.3321734013   -1.9144152642
C        0.2384271745   -3.3374744119   -2.9568747610
C        0.4981176182   -0.5410579865   -0.5831582481
C       -2.2094499394   -0.3009713581   -2.6522748460
C        0.3599006421    0.8444068349   -0.0254382134
C       -0.7104556400   -0.2429241337   -2.9260148537
N        1.0866598122   -1.5119776090    0.0688420870
N        1.0454399433   -2.6131347011   -0.7350036433
O       -2.8800778482   -1.1284534623   -3.2475355716
O       -2.7308509314    0.6079436898   -1.7910997800
S        0.9110374363   -3.1131745276   -4.5547314065
H       -0.8225743287   -6.3122907652   -4.1366461781
H       -0.8805360064   -4.8651267842   -1.8955818424
H        0.4398484393   -5.0960541545   -6.0438962375
H       -0.5009388137    0.8816670357    0.6474236912
H        1.2562081868    1.1081262507    0.5429858830
H        0.2146792056    1.5752146763   -0.8239243492
H       -0.5081862399   -0.6448827937   -3.9216247847
H       -0.3882328729    0.8010015084   -2.9264552047
H        1.4479185299   -3.5204063710   -0.5098521520
H       -3.6804692535    0.4141581104   -1.7298289059
25   

C       -1.1496602627   -5.0914346312   -4.3680675144
C       -1.3354992683   -4.2762715173   -3.1753014246
C        0.0960862166   -4.9239195173   -4.9210640150
C       -0.0759886164   -1.2525069370   -1.7352220735
C       -0.0727358126   -2.6112370407   -1.7546113880
C       -0.2230728286   -3.5303678158   -2.8823393920
C        0.1252609416   -0.8923095138   -0.3453425597
C       -1.7335301220    0.0929159043   -3.0152872465
C        0.2243159577    0.4883608106    0.2315479115
C       -0.2705112736   -0.3242645212   -2.9108818425
N        0.2315339841   -1.9773493874    0.3801405546
N        0.1138398266   -3.0380588155   -0.4703214631
O       -2.4886323787   -0.5885487768   -3.6895740599
O       -2.1137878583    1.2300006930   -2.3815460991
S        1.0835100374   -3.7768030735   -4.0191036225
H       -1.9108126050   -5.7485021852   -4.7748780716
H       -2.2496833844   -4.2455175547   -2.5929923750
H        0.4410089789   -5.4311328329   -5.8147148299
H       -0.7387967371    0.7730121208    0.6633217809
H        0.9787231914    0.5077481364    1.0230798180
H        0.4939561208    1.2146018506   -0.5384856547
H        0.0325384972   -0.8167486914   -3.8388570068
H        0.3509369541    0.5671116574   -2.7950445559
H        0.1706951827   -4.0181420510   -0.2013911114
H       -3.0662668397    1.3287457514   -2.5434408369
25   

C       -1.1351710710   -4.8979235851   -4.4607101097
C       -1.3161877515   -4.0350757506   -3.3013388649
C        0.1875237939   -5.0333845098   -4.8047376656
C       -0.0451085680   -1.2805773887   -1.7030234079
C        0.0409160556   -2.6362598419   -1.6980115104
C       -0.1225733426   -3.5723850782   -2.8116490179
C        0.1574018830   -0.8807025806   -0.3249483602
C       -1.8032917091   -0.0160059566   -2.9336713358
C        0.1901103568    0.5165397832    0.2182837663
C       -0.3256903722   -0.3923135937   -2.8916651940
N        0.3297992393   -1.9430874534    0.4207646951
N        0.2551344671   -3.0261930215   -0.4066000802
O       -2.6021104669   -0.8308227749   -3.3677402687
O       -2.1532263035    1.2217707580   -2.5046174486
S        1.2566299066   -4.1259307267   -3.7376274757
H       -1.9535407873   -5.3686158802   -4.9948262526
H       -2.2801947763   -3.7605041324   -2.8860846296
H        0.5435113047   -5.6254901477   -5.6399090858
H       -0.7818144573    0.7612522480    0.6547058360
H        0.9508417498    0.5940694711    1.0001381515
H        0.4135875843    1.2365233887   -0.5722934954
H       -0.0584159910   -0.9047452848   -3.8200160045
H        0.2789904215    0.5162720163   -2.8328913864
H        0.3472460092   -3.9974963838   -0.1162345603
H       -3.1193885825    1.2781770544   -2.5862829397
25   

C       -1.1343822640   -4.8317050309   -4.5417045381
C       -1.2992312892   -3.8926095213   -3.4408313070
C        0.1730962062   -5.2194091165   -4.7014495592
C       -0.0618984899   -1.3166614815   -1.7337476487
C        0.0752670196   -2.6694887443   -1.7163071596
C       -0.1133948575   -3.6243547523   -2.8065492069
C        0.1766909784   -0.8916983518   -0.3687324897
C       -1.8781300558   -0.0460307504   -2.8885904842
C        0.1822195729    0.5130818686    0.1558055238
C       -0.4058071084   -0.4448049268   -2.9192281397
N        0.4138760836   -1.9368248985    0.3830359878
N        0.3474586871   -3.0328222863   -0.4275135627
O       -2.7070212907   -0.8403959094   -3.3033014308
O       -2.1901812597    1.1909317477   -2.4295717206
S        1.2461820053   -4.4653622591   -3.5249730045
H       -1.9515073312   -5.1751412308   -5.1669871078
H       -2.2441058033   -3.4370703731   -3.1634266579
H        0.5167297881   -5.9079007062   -5.4648356479
H       -0.7840296949    0.7344172548    0.6166283672
H        0.9620644423    0.6242320061    0.9144157316
H        0.3611538452    1.2285909659   -0.6500816615
H       -0.1958031725   -0.9743972725   -3.8526795741
H        0.2123394265    0.4566405716   -2.9104867149
H        0.4774553361   -3.9966712965   -0.1269055920
H       -3.1577916988    1.2644006579   -2.4723587640
25   

C       -1.1225772337   -4.7940504467   -4.6099133018
C       -1.2790701692   -3.7806875515   -3.5758502330
C        0.1244652528   -5.3670655072   -4.5902208575
C       -0.1239103467   -1.3233177001   -1.7403978291
C        0.0481214302   -2.6742984023   -1.7347131845
C       -0.1481538487   -3.6357111447   -2.8124791643
C        0.1638477011   -0.8973718908   -0.3844280237
C       -1.9811384007   -0.0210040434   -2.8096162400
C        0.1629501397    0.5048554988    0.1473559308
C       -0.5172073250   -0.4417266505   -2.9046853222
N        0.4624542879   -1.9377783179    0.3511907917
N        0.3895953636   -3.0320217950   -0.4603460692
O       -2.8322390103   -0.7623913685   -3.2735686795
O       -2.2607597263    1.1830920785   -2.2532618758
S        1.1479569273   -4.7021112598   -3.3202999035
H       -1.9024466675   -5.0582142446   -5.3161058740
H       -2.1834805173   -3.2013821968   -3.4280404681
H        0.4523400770   -6.1396671766   -5.2761465016
H       -0.7907782698    0.7071562403    0.6417708029
H        0.9662666033    0.6263109959    0.8794519618
H        0.3020752736    1.2273830175   -0.6601166225
H       -0.3522036359   -0.9661830353   -3.8498955483
H        0.1108287166    0.4528061545   -2.9192723453
H        0.5592042805   -3.9926925710   -0.1694459384
H       -3.2273657928    1.2775054998   -2.2734479020
25   

C       -1.0723116049   -4.7318825214   -4.7064211669
C       -1.2054071524   -3.6606339417   -3.7292476067
C        0.0728013583   -5.4638435586   -4.5203987864
C       -0.1526570995   -1.3220137998   -1.7397712353
C        0.0384130219   -2.6726883389   -1.7614108733
C       -0.1577160718   -3.6249228291   -2.8423469620
C        0.1879410770   -0.9110740476   -0.3904790141
C       -2.0466320638   -0.0059063948   -2.7392046902
C        0.1942563278    0.4821608098    0.1651636940
C       -0.5814443724   -0.4134355792   -2.8718836690
N        0.5384237666   -1.9557012910    0.3146764576
N        0.4490549507   -3.0383987112   -0.5094492126
O       -2.8916064201   -0.6748863629   -3.3113510204
O       -2.3324619669    1.1175949685   -2.0369451537
S        1.0243376134   -4.8811960863   -3.1584293583
H       -1.7967474777   -4.9242135065   -5.4906009350
H       -2.0432581423   -2.9748000046   -3.7035834141
H        0.3670712134   -6.3052047580   -5.1372109570
H       -0.7458884586    0.6699139213    0.6903337717
H        1.0179802816    0.5968570764    0.8753726932
H        0.3054610746    1.2196378460   -0.6329453907
H       -0.4247458864   -0.9063489741   -3.8350850479
H        0.0361813337    0.4883268601   -2.8733845439
H        0.6531441651   -3.9989552965   -0.2412189899
H       -3.2986420404    1.2162438838   -2.0575083118
25   

C       -0.9745572781   -4.6716587469   -4.7682107632
C       -1.0817127675   -3.5435138805   -3.8542202534
C        0.0271188207   -5.5357287499   -4.4092336434
C       -0.1920525975   -1.2888785274   -1.7253308428
C        0.0185843682   -2.6392502899   -1.7586590364
C       -0.1543661962   -3.5911959605   -2.8407439155
C        0.1744100579   -0.8782507170   -0.3817116438
C       -2.1211245913   -0.0185833500   -2.7260664874
C        0.1684067373    0.5098870486    0.1877938957
C       -0.6382025744   -0.3639564947   -2.8387956131
N        0.5672364251   -1.9178104797    0.3069948450
N        0.4794530155   -2.9966102015   -0.5210043851
O       -2.9136171341   -0.6147098265   -3.4369916100
O       -2.4782190616    0.9815371923   -1.8838924639
S        0.8702058162   -5.0100136487   -2.9568834712
H       -1.6170726819   -4.8098298754   -5.6312597512
H       -1.8279159393   -2.7673801903   -3.9614014537
H        0.2777768167   -6.4403442700   -4.9512672186
H       -0.7646048040    0.6763946222    0.7324748872
H        1.0034019765    0.6314989703    0.8835652429
H        0.2520817301    1.2582780365   -0.6032059114
H       -0.4346928645   -0.8138723546   -3.8138171937
H       -0.0615631972    0.5634140694   -2.7991609752
H        0.7176500669   -3.9524426568   -0.2643199702
H       -3.4449859488    1.0570431434   -1.9405663875
25   

C       -0.8422329589   -4.6508872881   -4.8157282145
C       -0.8958443536   -3.4759254517   -3.9580941191
C       -0.0297227885   -5.6278038484   -4.3052028086
C       -0.1907412290   -1.2908839106   -1.7053932660
C        0.0450753445   -2.6406706168   -1.7512960624
C       -0.1159560001   -3.5971241929   -2.8306256015
C        0.2407862399   -0.8700548525   -0.3835184638
C       -2.1895978806   -0.1630335264   -2.7660443727
C        0.2087420542    0.5107773610    0.2034458429
C       -0.6734353823   -0.3495643552   -2.7912092609
N        0.6793049309   -1.9004867204    0.2885086602
N        0.5616383153   -2.9819931210   -0.5301132305
O       -2.8462953179   -0.6203110652   -3.6872130664
O       -2.7267388003    0.5572745001   -1.7513397183
S        0.6943266646   -5.1524908094   -2.7749291295
H       -1.3890689689   -4.7402916442   -5.7483533202
H       -1.5110919969   -2.6194267162   -4.1929938652
H        0.1502970009   -6.5849595864   -4.7810331725
H       -0.4998012891    1.1488729532   -0.3285639576
H       -0.0811875400    0.4597886370    1.2566490245
H        1.2046147994    0.9571845027    0.1405107892
H       -0.3538879806   -0.7068136168   -3.7732450242
H       -0.2078543965    0.6300534150   -2.6567328263
H        0.8274511768   -3.9325222411   -0.2810393451
H       -3.6868596503    0.5679859642   -1.8968464861
25   

C       -0.7379675353   -4.6495717241   -4.9994702177
C       -0.6672548367   -3.4507610386   -4.1768335210
C       -0.2095912134   -5.7429932280   -4.3684321935
C       -0.0999801909   -1.3715078379   -1.7886447542
C        0.1230669007   -2.7236446444   -1.8674474981
C       -0.0799948880   -3.6698881101   -2.9498637425
C        0.3598184204   -0.9790599357   -0.4680920033
C       -2.1454084583   -0.3540993530   -2.8607593525
C        0.3126396928    0.3860267519    0.1536625051
C       -0.6198772752   -0.3949403361   -2.8247205037
N        0.8179736361   -2.0215477251    0.1697587231
N        0.6795215568   -3.0844241560   -0.6690756187
O       -2.7125330210   -0.7371739059   -3.8711338709
O       -2.7934238464    0.1606748024   -1.7870455697
S        0.3894535653   -5.3516370482   -2.7632071763
H       -1.1673780097   -4.6708505844   -5.9954369828
H       -1.0634962281   -2.5061913050   -4.5186815623
H       -0.1644871913   -6.7366563460   -4.7991949506
H       -0.4966455729    0.9813936791   -0.2757786492
H        0.1530405890    0.2990108850    1.2321643067
H        1.2629848862    0.8988047493   -0.0167845958
H       -0.2192125801   -0.6357696508   -3.8116259276
H       -0.2608184096    0.6111191267   -2.5951589286
H        0.9538892495   -4.0390887419   -0.4465644607
H       -3.7431054058    0.0986849963   -1.9798294384
25   

C       -0.7955675272   -4.5213381296   -4.9197204850
C       -0.5091708810   -3.3103863960   -4.1644477798
C       -0.6848606034   -5.6495123427   -4.1515997173
C       -0.0479699359   -1.2428991814   -1.7475815798
C        0.1362986170   -2.5998858606   -1.8109688338
C       -0.1963372879   -3.5602435353   -2.8467708235
C        0.4673728262   -0.8443748507   -0.4501372379
C       -2.1500955694   -0.5678183871   -2.9891132363
C        0.4613550789    0.5284435984    0.1554459356
C       -0.6628524303   -0.3019476405   -2.7653338735
N        0.9190540232   -1.8905521937    0.1879872875
N        0.7181172877   -2.9630919081   -0.6264854747
O       -2.5488248761   -0.6499938010   -4.1398627546
O       -2.9564077232   -0.6853572103   -1.9052220613
S       -0.2327103272   -5.2787351269   -2.4934267885
H       -1.0671809063   -4.5250446749   -5.9699775885
H       -0.5408930041   -2.3301566354   -4.6195563652
H       -0.8561648989   -6.6564612197   -4.5144821364
H       -0.4351694135    1.0765659462   -0.1447737567
H        0.4804451988    0.4564778821    1.2468575510
H        1.3458111228    1.0795328145   -0.1748862332
H       -0.1210020315   -0.3749202105   -3.7109919313
H       -0.5571254542    0.7323102183   -2.4316769960
H        0.9632127669   -3.9235456219   -0.3951236759
H       -3.8465770251   -0.8808095817   -2.2392047871
25   

C       -0.7846916171   -4.4262070842   -4.9211178339
C       -0.3473617808   -3.2566310089   -4.1727969171
C       -0.9794375784   -5.5156816297   -4.1120385645
C       -0.0201802309   -1.2073627148   -1.7206964512
C        0.1613939949   -2.5610809937   -1.7944851607
C       -0.2312951121   -3.5034631077   -2.8252391934
C        0.5416691692   -0.8180559929   -0.4401670294
C       -2.1427962292   -0.7532463166   -3.0496924737
C        0.6210858971    0.5615537208    0.1438158334
C       -0.7268449327   -0.2931125770   -2.7039907133
N        1.0270486611   -1.8679098736    0.1693384239
N        0.8019533340   -2.9364345373   -0.6457055590
O       -2.4839678092   -0.7058199570   -4.2208123026
O       -2.9498209761   -1.1888539824   -2.0505850664
S       -0.6409137237   -5.1594570859   -2.4221238179
H       -0.9409422443   -4.4300968501   -5.9946031022
H       -0.1373758970   -2.3013922002   -4.6382007007
H       -1.3067920536   -6.4873935503   -4.4635748732
H       -0.2791776418    0.7607540946    0.7315398947
H        1.4910049129    0.6393280276    0.8023509426
H        0.7056070846    1.3124684272   -0.6451447211
H       -0.1329035610   -0.2155723088   -3.6181558590
H       -0.8062756598    0.7126350250   -2.2864199367
H        1.0612647572   -3.8979178366   -0.4350920402
H       -3.7786659095   -1.4745816652   -2.4666962153
25   

C       -0.7131897694   -4.4174355794   -4.9412008227
C       -0.1882717056   -3.2798390268   -4.1995794531
C       -1.1321747426   -5.4272835132   -4.1123042065
C       -0.0519759542   -1.1804795003   -1.7495017910
C        0.1718113997   -2.5252711840   -1.8187964623
C       -0.2252845715   -3.4783871825   -2.8413467857
C        0.5495129920   -0.7630833294   -0.4966529021
C       -2.1869767577   -0.8869871695   -3.1139540150
C        0.6012322747    0.6229474457    0.0744252641
C       -0.8247766095   -0.3123968093   -2.7248564438
N        1.1047826250   -1.7904248217    0.0935591814
N        0.8860729557   -2.8729405894   -0.7059712785
O       -2.5059847365   -0.8394162773   -4.2913362125
O       -2.9734631858   -1.4185778333   -2.1453547642
S       -0.9040541626   -5.0346939348   -2.4109173784
H       -0.7717273071   -4.4555339681   -6.0237318580
H        0.1794621310   -2.3738349077   -4.6673739207
H       -1.5595163257   -6.3621107075   -4.4564213216
H       -0.2561635368    0.7770407176    0.7352064781
H        1.5173156636    0.7523813828    0.6578893500
H        0.5777409559    1.3714272366   -0.7209939745
H       -0.2245041124   -0.1662397441   -3.6267097080
H       -0.9998557253    0.6722967027   -2.2862527716
H        1.1946084270   -3.8223029685   -0.5069568102
H       -3.7605389160   -1.7710793483   -2.5902632379
25   

C       -0.6553782299   -4.4244846108   -4.9194952138
C       -0.0500986468   -3.3393004963   -4.1603902772
C       -1.2934524796   -5.3304381947   -4.1094876777
C       -0.0851654246   -1.1885578742   -1.7047054555
C        0.1652545316   -2.5261101571   -1.7853742145
C       -0.2430742693   -3.4791156316   -2.8092347801
C        0.5648900130   -0.7592373655   -0.4808648948
C       -2.2339841478   -0.9823966017   -3.0677946506
C        0.6093486529    0.6273008482    0.0891739727
C       -0.9081783436   -0.3418116221   -2.6571581926
N        1.1787203390   -1.7729836778    0.0753113843
N        0.9510404605   -2.8592106317   -0.7174584571
O       -2.5338990869   -0.9569699091   -4.2508777164
O       -3.0145796149   -1.5395437623   -2.1089841349
S       -1.1802111809   -4.9024618420   -2.4046294485
H       -0.6142867802   -4.4996446217   -6.0008593006
H        0.4752409299   -2.5034979986   -4.6086140139
H       -1.8143754365   -6.2101547194   -4.4695381537
H       -0.2069492088    0.7534149431    0.8055228669
H        1.5573429871    0.7858806800    0.6112300370
H        0.5089745987    1.3747534653   -0.7012446495
H       -0.3163996040   -0.1401645511   -3.5541428674
H       -1.1386295737    0.6192349012   -2.1921334036
H        1.2981775289   -3.7998133044   -0.5416483600
H       -3.7746138428   -1.9324515476   -2.5668447104
25   

C        0.3447733305   -4.9054893733   -4.5164016903
C        0.7839158661   -3.9109127825   -3.5472811974
C       -0.9431416740   -5.3199935358   -4.2835836317
C       -0.0651985249   -1.2857775751   -1.6174283971
C       -0.0743647676   -2.6433029655   -1.5445381946
C       -0.1865183346   -3.6273783162   -2.6204938810
C        0.0865233124   -0.8327896139   -0.2483335000
C       -1.6643990469   -0.0317087706   -3.0600369617
C        0.1711981103    0.5830710768    0.2386330146
C       -0.2078729292   -0.4374978434   -2.8597993237
N        0.1604221425   -1.8664578282    0.5519807986
N        0.0607877156   -2.9818403793   -0.2278357444
O       -2.3550353655   -0.6922176214   -3.8185125913
O       -2.1049506422    1.0804303888   -2.4207792359
S       -1.6624047406   -4.5246226429   -2.8858655048
H        0.9612375420   -5.2699502611   -5.3310587462
H        1.7591734638   -3.4374117541   -3.5569891781
H       -1.4699912931   -6.0492909799   -4.8880690737
H       -0.8070649203    0.8989607615    0.6106838720
H        0.8927420705    0.6529626032    1.0574351033
H        0.4754903242    1.2555024640   -0.5664622836
H        0.1381775463   -0.9887008341   -3.7383630890
H        0.4052902213    0.4628719839   -2.7745357352
H        0.0760538329   -3.9415366674    0.1113843147
H       -3.0442435631    1.1738074660   -2.6494817177
25   

C        0.4226286031   -5.0569382454   -4.4138530622
C        0.8776301054   -4.0990863301   -3.4153909005
C       -0.9374604058   -5.2395937942   -4.3719159485
C       -0.0961126117   -1.2652180220   -1.6427976131
C       -0.0346463348   -2.6213253610   -1.5858038933
C       -0.1577080707   -3.6046496031   -2.6641894282
C        0.0887819334   -0.8197982084   -0.2754141319
C       -1.7898164503   -0.0315027806   -2.9977240886
C        0.1312569382    0.5939664173    0.2226950483
C       -0.3189922971   -0.4150540364   -2.8717292152
N        0.2410034670   -1.8572824159    0.5092853253
N        0.1620425807   -2.9684091474   -0.2791674586
O       -2.5100272844   -0.7078276100   -3.7135562089
O       -2.2119386840    1.0801791281   -2.3454336782
S       -1.7084757157   -4.2621263553   -3.1254285048
H        1.0810877507   -5.5627551225   -5.1118192599
H        1.9115671761   -3.8017261503   -3.2808206844
H       -1.4869137038   -5.9035607912   -5.0292739642
H       -0.8451727873    0.8649677599    0.6329180206
H        0.8787769412    0.6875625852    1.0154104631
H        0.3772972354    1.2851225493   -0.5865420973
H       -0.0083533737   -0.9583514054   -3.7686341234
H        0.2837741786    0.4945712505   -2.8136900499
H        0.2253348065   -3.9300751090    0.0486606314
H       -3.1625637404    1.1600175055   -2.5277069723
25   

C        0.4695757940   -5.1489300725   -4.3321026878
C        0.9379915358   -4.2419762883   -3.2931323972
C       -0.8892583733   -5.0711616775   -4.5110067139
C       -0.0613180596   -1.1993717397   -1.6508968156
C        0.0518342948   -2.5536687109   -1.6459483201
C       -0.0855882678   -3.5146572122   -2.7404103529
C        0.1522352982   -0.7975989295   -0.2740814079
C       -1.8047701895    0.1400995174   -2.8445487894
C        0.1730418671    0.5989346237    0.2715802374
C       -0.3463744229   -0.3079349267   -2.8373822150
N        0.3598180750   -1.8566618953    0.4680338565
N        0.2913629935   -2.9412066502   -0.3573677540
O       -2.6261659955   -0.5546456832   -3.4197509222
O       -2.1072618317    1.3216575660   -2.2518267790
S       -1.6426438955   -3.8998472989   -3.4323913240
H        1.1187285596   -5.8081999736   -4.8983206203
H        1.9743067940   -4.1482942960   -2.9884062468
H       -1.4471140719   -5.6564949044   -5.2328717980
H       -0.7947010760    0.8275163314    0.7257713469
H        0.9464740860    0.6873342363    1.0396820684
H        0.3704174134    1.3236195983   -0.5217112525
H       -0.1280554682   -0.8376227700   -3.7689297271
H        0.2989720772    0.5735619647   -2.8038287243
H        0.3811764761   -3.9118507912   -0.0642899784
H       -3.0669047293    1.4372703177   -2.3478141854
25   

C        0.4826297252   -5.3084152705   -4.2436085336
C        0.9177361278   -4.4135037550   -3.1801207237
C       -0.8154493772   -5.0701243909   -4.6198519154
C       -0.1436386587   -1.2049341545   -1.7325191459
C        0.0481074229   -2.5516228068   -1.7314263656
C       -0.0657976036   -3.5310813951   -2.8070151948
C        0.1038522093   -0.7878724151   -0.3656102770
C       -1.9782995099    0.0967537526   -2.8384630784
C        0.0757558979    0.6098619874    0.1768723640
C       -0.5127602949   -0.3236119705   -2.9041489209
N        0.4021984448   -1.8306970797    0.3681815408
N        0.3619426056   -2.9196159270   -0.4526763577
O       -2.8173333713   -0.6276824525   -3.3475456817
O       -2.2703642952    1.2877086308   -2.2597816931
S       -1.5489598600   -3.7569852149   -3.7037401660
H        1.1108206963   -6.0741202949   -4.6860462082
H        1.9055950595   -4.4382885402   -2.7341151321
H       -1.3407399013   -5.6191273287   -5.3928903546
H       -0.8913090629    0.7983985717    0.6503576896
H        0.8606694994    0.7341068001    0.9282251213
H        0.2258105254    1.3397382980   -0.6220456255
H       -0.3303467806   -0.8491821385   -3.8455028198
H        0.1153324157    0.5709758343   -2.9057366861
H        0.5116669647   -3.8827989298   -0.1599998965
H       -3.2358910471    1.3835328671   -2.3059644181
25   

C        0.4289959651   -5.3835418312   -4.1580138026
C        0.8319369418   -4.5309443742   -3.0482791036
C       -0.7595065489   -4.9813987062   -4.7124255675
C       -0.1695538060   -1.1865964506   -1.7345985350
C        0.0471562907   -2.5318163785   -1.7475490235
C       -0.0642518194   -3.5151654338   -2.8149111295
C        0.1262528937   -0.7696866755   -0.3766757151
C       -2.0532920426    0.1034439307   -2.7759924762
C        0.0955239875    0.6245175169    0.1755289717
C       -0.5823434731   -0.2899309325   -2.8809022672
N        0.4781597445   -1.8076754318    0.3389812193
N        0.4271625913   -2.8934135373   -0.4843544963
O       -2.8904911002   -0.6200535925   -3.2892564692
O       -2.3530492286    1.2734376305   -2.1598055481
S       -1.4246197594   -3.5612485323   -3.9121438484
H        1.0016391391   -6.2365736393   -4.5060282534
H        1.7416942778   -4.6783018000   -2.4777236033
H       -1.2438936293   -5.4721109536   -5.5487784854
H       -0.8577534999    0.7956089890    0.6823540144
H        0.9034263745    0.7563373912    0.9008086683
H        0.2079135402    1.3620689526   -0.6224159620
H       -0.4065281445   -0.7882678780   -3.8376707558
H        0.0281437092    0.6166858129   -2.8774918712
H        0.6075951070   -3.8533741533   -0.1993935343
H       -3.3206603920    1.3547103442   -2.1856784970
25   

C        0.3499866425   -5.5242430143   -4.0281322572
C        0.7156299769   -4.7020681597   -2.8833153574
C       -0.6915301803   -4.9853380649   -4.7381248401
C       -0.1709561388   -1.2278034603   -1.7090057457
C        0.0586208840   -2.5741769656   -1.7235764376
C       -0.0622613307   -3.5717850708   -2.7735952807
C        0.1842476141   -0.7975560215   -0.3684258165
C       -2.1185000796   -0.0141094679   -2.7294783927
C        0.1622643472    0.5973243582    0.1839635604
C       -0.6276455092   -0.3233464721   -2.8341771585
N        0.5869660178   -1.8244130892    0.3348427454
N        0.5128497887   -2.9150700743   -0.4784448804
O       -2.8989671326   -0.6568445674   -3.4118709416
O       -2.4966880646    1.0093048349   -1.9242449963
S       -1.2585428709   -3.4707282767   -4.0443674109
H        0.8447475586   -6.4533074899   -4.2903570405
H        1.5234341315   -4.9541374571   -2.2065938267
H       -1.1244969424   -5.4299255579   -5.6268316239
H       -0.7720488847    0.7595397273    0.7276708634
H        0.9966049823    0.7374131720    0.8770731727
H        0.2362413184    1.3368638112   -0.6162695718
H       -0.4109472415   -0.7762415866   -3.8044644103
H       -0.0727457303    0.6172872020   -2.8000552177
H        0.7255568715   -3.8681220555   -0.1939178326
H       -3.4651592518    1.0568517560   -1.9799315408
25   

C        0.2483370939   -5.5580699674   -3.9438294527
C        0.5597996590   -4.7613142445   -2.7656147898
C       -0.5826573423   -4.8959809445   -4.8088590311
C       -0.1655702612   -1.1641785123   -1.7355225875
C        0.0805820470   -2.5119024531   -1.7486288515
C       -0.0484109165   -3.5247645405   -2.7823181867
C        0.2565599054   -0.7126326182   -0.4206926032
C       -2.1823136630   -0.0900730712   -2.8010805815
C        0.2196119435    0.6811456384    0.1344918290
C       -0.6641903503   -0.2516739425   -2.8384337336
N        0.6918597459   -1.7269032042    0.2787660349
N        0.5803054097   -2.8282187828   -0.5133892106
O       -2.8507644053   -0.6446099316   -3.6575467872
O       -2.7094582684    0.7228157039   -1.8522771237
S       -1.0115589043   -3.2936300283   -4.2235161091
H        0.6313466306   -6.5577760195   -4.1187603792
H        1.2142559016   -5.1135146025   -1.9778608749
H       -0.9409518268   -5.3005997351   -5.7484438674
H       -0.4890082404    1.3051805077   -0.4138237412
H       -0.0727719631    0.6537293904    1.1878844253
H        1.2145423375    1.1284966814    0.0636494885
H       -0.3516753245   -0.6230415787   -3.8168746717
H       -0.2111720825    0.7367049209   -2.7279364738
H        0.8162823542   -3.7734648829   -0.2229346373
H       -3.6720842734    0.7036472758   -1.9782099451
25   

C       -0.0648612434   -5.5860442628   -3.8258174657
C        0.2704506679   -4.7888433366   -2.6543593133
C       -0.6406840116   -4.8328146586   -4.8148301551
C       -0.1093276747   -1.0691088917   -1.8209780808
C        0.1480848970   -2.4163602019   -1.8128005747
C       -0.0644025025   -3.4598964839   -2.8006841530
C        0.3577095708   -0.5803295245   -0.5365142974
C       -2.2259557777   -0.2022178050   -2.9028541571
C        0.2743363500    0.8205817130   -0.0054736884
C       -0.6986639119   -0.1858311919   -2.9045403079
N        0.8473959211   -1.5685533651    0.1632241132
N        0.7210570988   -2.6890629221   -0.5991937953
O       -2.8016593800   -0.3416791673   -3.9696036801
O       -2.8701064154   -0.0368765590   -1.7201175557
S       -0.7934678379   -3.1411661547   -4.3581899463
H        0.1194975983   -6.6519431911   -3.9072173934
H        0.7346319456   -5.2142253020   -1.7734963488
H       -0.9688621152   -5.2219427069   -5.7718525577
H       -0.5742722281    1.3505964787   -0.4449387234
H        0.1537450147    0.8009598636    1.0814274223
H        1.1952842763    1.3587924014   -0.2445714336
H       -0.3208575059   -0.4825924490   -3.8851661947
H       -0.3738948148    0.8463313943   -2.7551828255
H        1.0139780491   -3.6171752857   -0.3065508072
H       -3.8199846232   -0.0928819303   -1.9117349173
