29   

C        2.3217310480   -3.3704937594    0.4953367170
C        3.1979604506   -2.5964752063    1.2585973862
C        0.9442302962   -3.2455194791    0.6847443379
C        2.6974110174   -1.7147395468    2.2231506994
C        0.4428837048   -2.3625916964    1.6474017006
C       -0.1714967388   -3.4800901842    5.7554059789
C        0.4119919978   -4.7292089768    5.9789032388
C       -1.1120701109   -4.3118676579    3.6972297741
C        1.3108384069   -1.6114618286    2.4591259217
C       -0.9271788880   -3.2549696966    4.6008672685
C        0.2482829547   -5.7765512685    5.0638699103
C       -0.5268954706   -5.5653750743    3.9092999009
C        0.8672672910   -0.6482524085    3.4698439638
C       -0.3002261262   -0.4753195610    4.1185626354
O       -2.5075212742   -1.6536602925    3.0664609444
O       -2.4781556583   -1.2147783959    5.4607623455
S       -1.6887928439   -1.6270397838    4.2901141539
Cl       1.0035146006   -7.3237901108    5.3777554149
Cl      -0.7725649858   -6.8392141080    2.7340888700
H        2.7078793853   -4.0554937094   -0.2513877422
H        4.2676637929   -2.6789579741    1.1021954685
H        0.2593120579   -3.8237745167    0.0745578589
H        3.3995320475   -1.1235529582    2.8004338547
H       -0.6287015690   -2.2544534620    1.7174437662
H       -0.0387265529   -2.6832692616    6.4821686044
H        0.9998718407   -4.8954151842    6.8737646808
H       -1.7207876554   -4.1647297685    2.8094136619
H        1.6251462412    0.0755978740    3.7517169193
H       -0.4385417697    0.4196669400    4.7061800543
29   

C        2.1688468785   -3.5518028991    0.6809836139
C        3.0575428797   -2.9052674392    1.5435190275
C        0.8157033052   -3.2059391763    0.6928544801
C        2.5900918421   -1.9283867277    2.4300300133
C        0.3475556110   -2.2293540462    1.5787000727
C       -0.1053854363   -3.4266898111    5.7123506181
C        0.5536009055   -4.6446513425    5.8959573293
C       -0.9803362908   -4.2418174819    3.6192167344
C        1.2209392305   -1.6029353583    2.4840970223
C       -0.8654860649   -3.2078256227    4.5597427102
C        0.4623240412   -5.6660965644    4.9420469145
C       -0.3185580111   -5.4626554313    3.7901672159
C        0.7885850688   -0.5637590292    3.4267177528
C       -0.3743241938   -0.4020685206    4.0822573255
O       -2.5497702683   -1.6667283840    3.0779088487
O       -2.4848796834   -1.2422615990    5.4768972616
S       -1.7072209525   -1.6131874388    4.2845889012
Cl       1.3156296119   -7.1714918475    5.2034175148
Cl      -0.4731479479   -6.7035249469    2.5651962100
H        2.5293746666   -4.3111134277   -0.0041513758
H        4.1107495984   -3.1620144178    1.5255779312
H        0.1271813514   -3.6877775220    0.0075836546
H        3.2961375244   -1.4385867859    3.0913020590
H       -0.6970805406   -1.9497558297    1.5306079906
H       -0.0251961761   -2.6481832793    6.4661496051
H        1.1463291617   -4.8058515390    6.7884508353
H       -1.5878007247   -4.0980910143    2.7300614441
H        1.5483595773    0.1727026898    3.6680337710
H       -0.5419385707    0.5046442008    4.6434671463
29   

C        1.9553072702   -3.7081852171    0.8279159937
C        2.8093835945   -3.2510198762    1.8354057505
C        0.7027686701   -3.1131703333    0.6559191042
C        2.4073416923   -2.2072085649    2.6767166036
C        0.2982098888   -2.0733290233    1.5001148108
C       -0.0843690704   -3.3886138488    5.6857688130
C        0.6466815821   -4.5682610539    5.8474171397
C       -0.8653806762   -4.1930064806    3.5518416192
C        1.1372304989   -1.6222771799    2.5329554373
C       -0.8318988168   -3.1816033931    4.5227341332
C        0.6400103543   -5.5629880952    4.8613187518
C       -0.1317652534   -5.3749549084    3.7009712388
C        0.7369044206   -0.5324933946    3.4406843584
C       -0.4296955076   -0.3681635046    4.0831935455
O       -2.5432725748   -1.6843182407    3.0253016293
O       -2.5413099746   -1.2838212932    5.4349281244
S       -1.7316585667   -1.6168575613    4.2526044308
Cl       1.5895280261   -7.0148914318    5.0914092156
Cl      -0.1806589446   -6.5834204751    2.4353934841
H        2.2651843495   -4.5188406101    0.1777190056
H        3.7839403041   -3.7078457679    1.9656166088
H        0.0427325355   -3.4554651969   -0.1334067886
H        3.0801027879   -1.8659822962    3.4554627868
H       -0.6699791387   -1.6111149779    1.3388516796
H       -0.0640575315   -2.6274411287    6.4609154412
H        1.2331131031   -4.7185866440    6.7459263937
H       -1.4569849820   -4.0560698240    2.6510145646
H        1.5140483233    0.1868449423    3.6781271403
H       -0.6170414585    0.5366059950    4.6410221087
29   

C        1.8477370659   -3.7471147803    0.8897647487
C        2.6269358346   -3.3932966043    1.9952410970
C        0.6937557146   -3.0175275978    0.5901714785
C        2.2526323354   -2.3112453346    2.8003170364
C        0.3166415567   -1.9395167749    1.3983973906
C       -0.0772510708   -3.3638635560    5.6555976171
C        0.6740594584   -4.5297758405    5.8251488272
C       -0.8002658905   -4.1711131053    3.5020761081
C        1.0907881315   -1.5767877120    2.5123706319
C       -0.8067040835   -3.1653030195    4.4794446991
C        0.7035235572   -5.5203359837    4.8353180762
C       -0.0505204574   -5.3418699307    3.6618916665
C        0.6919943487   -0.4564548508    3.3922654672
C       -0.4509102876   -0.3416796510    4.0807140972
O       -2.5001885699   -1.6868741295    2.9426895391
O       -2.5841616665   -1.3133795368    5.3574873666
S       -1.7315976362   -1.6167229760    4.1974369436
Cl       1.6765311315   -6.9548386562    5.0764036866
Cl      -0.0570739755   -6.5486040141    2.3935886872
H        2.1357589499   -4.5873876679    0.2677190812
H        3.5196753166   -3.9615026742    2.2308733575
H        0.0865948284   -3.2879745659   -0.2665981531
H        2.8612248564   -2.0522369049    3.6593188253
H       -0.5836240138   -1.3826562988    1.1571939123
H       -0.0857163749   -2.6062929387    6.4344461030
H        1.2474931566   -4.6729817202    6.7332180281
H       -1.3731949206   -4.0379672187    2.5886572272
H        1.4519605984    0.2951024705    3.5802432572
H       -0.6464463177    0.5398550433    4.6718004511
29   

C        2.0826348911   -3.2005537259    0.8072645078
C        2.3636525538   -3.9909036037    1.9260204731
C        1.8262695667   -1.8353395556    0.9662219089
C        2.3931614368   -3.4154900668    3.2016116832
C        1.8540335782   -1.2611933763    2.2418816946
C       -0.8249869985   -3.9147625848    4.9265891305
C       -0.9392071287   -5.1889640023    4.3640533785
C       -1.0263662858   -2.9508947054    2.7256274679
C        2.1472752585   -2.0436623913    3.3688127183
C       -0.8485705359   -2.7822813697    4.1066397398
C       -1.0921075856   -5.3572847577    2.9819532422
C       -1.1456414706   -4.2225310341    2.1531464868
C        2.1380856025   -1.4559277123    4.7318931350
C        1.0608777457   -1.0821932333    5.4302754968
O       -0.8101342897   -0.0831774875    3.7617737954
O       -1.5529761837   -0.9119118794    5.9397700778
S       -0.6372677685   -1.1087703050    4.8050536787
Cl      -1.2107322511   -6.9710755567    2.3153231282
Cl      -1.3447347229   -4.3721021374    0.4201980219
H        2.0548635342   -3.6470381638   -0.1805903645
H        2.5509187228   -5.0518650655    1.8049545672
H        1.5990646987   -1.2206249078    0.1023369577
H        2.5994761444   -4.0397978794    4.0635845335
H        1.6378636397   -0.2036340330    2.3588889988
H       -0.7090753619   -3.8051887611    6.0013719159
H       -0.9081134168   -6.0639225701    5.0024291065
H       -1.0577337694   -2.0799879116    2.0767668406
H        3.0909424189   -1.4423661358    5.2511278091
H        1.1602638521   -0.7220858336    6.4427316393
29   

C        2.1005703479   -3.2792519708    0.8611004369
C        2.2730522768   -4.0141630860    2.0381424664
C        1.9403077771   -1.8915933615    0.9240829783
C        2.2877670053   -3.3612636486    3.2760795398
C        1.9581536617   -1.2396846311    2.1621788991
C       -0.7998293859   -3.9535894053    4.9174115813
C       -0.9084700888   -5.2104361386    4.3153329353
C       -1.0269317496   -2.9224115843    2.7491974790
C        2.1401816937   -1.9678322427    3.3463124774
C       -0.8395991164   -2.7959546197    4.1336254341
C       -1.0733073832   -5.3360894294    2.9299149569
C       -1.1431250081   -4.1761636324    2.1379696007
C        2.1264060470   -1.2895134311    4.6700026622
C        1.0602188145   -1.0368348903    5.4342764506
O       -0.9277314171   -0.0917016328    3.8828642835
O       -1.5322818146   -1.0211881399    6.0606795066
S       -0.6600477304   -1.1405614948    4.8815982559
Cl      -1.1865118252   -6.9286764103    2.2132387669
Cl      -1.3589800969   -4.2722454627    0.4032059399
H        2.0817534353   -3.7855247240   -0.0977149041
H        2.3856132758   -5.0914369420    1.9915414535
H        1.7964126045   -1.3198958773    0.0140285154
H        2.4095598531   -3.9405856171    4.1843061104
H        1.8181521691   -0.1642566349    2.2057141298
H       -0.6793574607   -3.8769231121    5.9946188912
H       -0.8659630467   -6.1051388643    4.9251099568
H       -1.0716030417   -2.0315971048    2.1286483420
H        3.0996709527   -1.0544432420    5.0886982760
H        1.1828971972   -0.6693400403    6.4415261642
29   

C        2.7870408877   -4.2963919320    2.0011164402
C        3.1450799545   -4.1038162015    3.3387934305
C        2.0465427372   -3.3170004454    1.3328845996
C        2.7582741725   -2.9364868623    4.0068926939
C        1.6633979950   -2.1497350073    2.0029186250
C       -0.3987209821   -4.1793327611    3.9961304859
C       -0.7771214702   -4.8745139043    2.8471554744
C       -1.7266078582   -2.2988141229    3.2791042939
C        2.0025143710   -1.9545791265    3.3505991127
C       -0.8575081680   -2.8758066300    4.2150095593
C       -1.6186059916   -4.2878249608    1.8957321882
C       -2.1040937806   -2.9852639299    2.1169514771
C        1.6164645780   -0.7049149725    4.0536402430
C        0.6689720958   -0.5680780713    4.9868592657
O       -1.4472630716   -1.3780761166    6.4006699853
O        0.5578876759   -2.7740086176    6.5354779140
S       -0.2954049359   -1.9358286517    5.6751679547
Cl      -2.0411717378   -5.1815929187    0.4517124695
Cl      -3.1577325564   -2.2036213057    0.9584449638
H        3.0855793750   -5.2006125799    1.4824061610
H        3.7235675470   -4.8574981871    3.8613528999
H        1.7673111983   -3.4610656627    0.2951327927
H        3.0373970088   -2.7965329628    5.0467868191
H        1.0886211117   -1.3970870787    1.4746842747
H        0.2711803513   -4.6464857351    4.7137043768
H       -0.4034745579   -5.8780053516    2.6827087773
H       -2.1058481928   -1.2945486097    3.4427508780
H        2.0728630488    0.2070718831    3.6824501281
H        0.4274639463    0.4031946749    5.3906038953
29   

C        2.8457473819   -4.2861551101    2.0183552246
C        3.0665666706   -4.1110271724    3.3873666578
C        2.2061150030   -3.2829530557    1.2849100651
C        2.6400282118   -2.9390194823    4.0219433503
C        1.7858944078   -2.1092297123    1.9206558993
C       -0.4120707203   -4.1916710632    3.9939971422
C       -0.8043098831   -4.8717336607    2.8406004489
C       -1.7306607570   -2.2940459321    3.3064817983
C        1.9831324431   -1.9310626064    3.2986739001
C       -0.8578472046   -2.8865524827    4.2288824538
C       -1.6497876346   -4.2692684466    1.9025533248
C       -2.1241553160   -2.9658596556    2.1415003271
C        1.5350846803   -0.6883072074    3.9660982485
C        0.6707270690   -0.5830064508    4.9832800024
O       -1.4116188036   -1.4090780207    6.4376678430
O        0.5982160177   -2.8001178036    6.5275851850
S       -0.2720031216   -1.9589011026    5.6874124998
Cl      -2.0924364868   -5.1452163452    0.4536575073
Cl      -3.1835003280   -2.1648478931    1.0015718566
H        3.1733692934   -5.1950193839    1.5259793922
H        3.5693708516   -4.8817304889    3.9609406245
H        2.0338682385   -3.4138886349    0.2224572786
H        2.8196707197   -2.8144747517    5.0854534623
H        1.2878607580   -1.3404084015    1.3403755728
H        0.2588127259   -4.6717958600    4.7019563617
H       -0.4397465658   -5.8762304403    2.6624461044
H       -2.1000252932   -1.2882923511    3.4829793903
H        1.8613342204    0.2399986238    3.5082740778
H        0.4411024989    0.3811963300    5.4103480507
29   

C        2.9364500233   -4.2207375603    1.9828366538
C        2.9745193457   -4.1080847270    3.3747319279
C        2.4410213921   -3.1634267321    1.2158536473
C        2.5064765156   -2.9457302140    3.9975422686
C        1.9797710953   -1.9992872692    1.8406017387
C       -0.4724042321   -4.1814423654    4.0723366357
C       -0.8820004129   -4.8990673994    2.9480362520
C       -1.7549766240   -2.2869750702    3.3123688614
C        1.9906428089   -1.8803797955    3.2396474813
C       -0.8912715124   -2.8592381471    4.2555964251
C       -1.7208333470   -4.3186357917    1.9901446620
C       -2.1678789415   -2.9973688797    2.1777423833
C        1.4740279099   -0.6565091255    3.8779540664
C        0.6641752122   -0.5463310133    4.9421104181
O       -1.4367911762   -1.2998118155    6.4062419655
O        0.5485971684   -2.7131746747    6.5616956687
S       -0.2995891287   -1.8892121046    5.6830985118
Cl      -2.1926476807   -5.2453100469    0.5825820351
Cl      -3.2205293536   -2.2232671648    1.0132907960
H        3.2956994728   -5.1223156870    1.4991854482
H        3.3705398524   -4.9191526671    3.9756143591
H        2.4120196010   -3.2453006493    0.1350780792
H        2.5623269818   -2.8716329574    5.0783345078
H        1.5924544283   -1.1909923602    1.2302691308
H        0.1869335751   -4.6482240062    4.7997889977
H       -0.5400469607   -5.9177371097    2.8096929391
H       -2.1056082059   -1.2686204327    3.4506583307
H        1.7235178763    0.2722746497    3.3750012141
H        0.4582430919    0.4245140013    5.3664263174
29   

C        3.0343692722   -4.0346145661    1.7315687461
C        2.7681401936   -4.1485258156    3.0969667126
C        2.8195438257   -2.8159042140    1.0861366280
C        2.2771234725   -3.0503917830    3.8117232414
C        2.3305278659   -1.7186739275    1.8035640110
C       -0.6800045156   -4.3055983549    4.3327216678
C       -1.1067385228   -5.1042511168    3.2708852173
C       -1.5978676637   -2.3701127112    3.2257324748
C        2.0358168978   -1.8186730847    3.1748676121
C       -0.9106866148   -2.9254314463    4.3134835181
C       -1.7732867563   -4.5470054858    2.1737032389
C       -2.0244855228   -3.1624516711    2.1523112464
C        1.4875024921   -0.6491378751    3.8708062028
C        0.6529315345   -0.5596063127    4.9213517992
O       -1.4785282335   -1.2545067199    6.3657941811
O        0.4899152070   -2.6579345629    6.6270439160
S       -0.3308045177   -1.8749088254    5.6873466638
Cl      -2.2812155590   -5.5819222164    0.8569839945
Cl      -2.8564661399   -2.4131771499    0.8070420524
H        3.4129081790   -4.8859539779    1.1768216703
H        2.9494733950   -5.0872051380    3.6081607949
H        3.0293552082   -2.7204380393    0.0266611270
H        2.1185601836   -3.1654131774    4.8758636361
H        2.1638985572   -0.7847445508    1.2783208264
H       -0.1634505443   -4.7585512320    5.1755232758
H       -0.9192505042   -6.1711941981    3.2933210091
H       -1.8023090909   -1.3042247736    3.2024359335
H        1.7663954864    0.3052784963    3.4357288153
H        0.4506323822    0.4112741357    5.3478719319
29   

C        3.3422301951   -3.9365323226    1.7045540612
C        2.8299211570   -4.1450097750    2.9851468403
C        3.2541652105   -2.6704877799    1.1262616551
C        2.2226000431   -3.0939809021    3.6813657899
C        2.6473083034   -1.6209634765    1.8244689729
C       -0.7894072772   -4.3434646587    4.3970426716
C       -1.3005396886   -5.1632400552    3.3895968316
C       -1.7286337592   -2.4204376941    3.2859847893
C        2.1088345871   -1.8098534557    3.1117901053
C       -0.9895319783   -2.9591167248    4.3480669957
C       -2.0229459009   -4.6235576383    2.3190831139
C       -2.2413260936   -3.2343348896    2.2678672346
C        1.4424836690   -0.6768155944    3.7569882841
C        0.6016603581   -0.5815683806    4.8046188615
O       -1.4320404117   -1.2471855983    6.3923310324
O        0.5485800219   -2.6442185648    6.5695049326
S       -0.3249596365   -1.8815489885    5.6615021731
Cl      -2.6424084677   -5.6858654256    1.0737585918
Cl      -3.1422439305   -2.5062197352    0.9556171528
H        3.8115616935   -4.7516478269    1.1649609401
H        2.9099935716   -5.1224139577    3.4472929842
H        3.6537175758   -2.5006808053    0.1326996221
H        1.8805810263   -3.2986360687    4.6837688112
H        2.5849358779   -0.6505338359    1.3446368440
H       -0.2369319158   -4.7843509404    5.2234245360
H       -1.1394685618   -6.2338256031    3.4355132235
H       -1.9119430476   -1.3513011045    3.2415200311
H        1.6719298845    0.2822393196    3.3037205223
H        0.3544466976    0.4010819437    5.1774078592
29   

C        2.8480660749   -2.1964457483    0.3982412928
C        1.4891944084   -2.1446015437    0.7054956420
C        3.7858467126   -1.8890181595    1.3824601957
C        1.0691152271   -1.7926639028    1.9932226473
C        3.3631129057   -1.5371729174    2.6688137742
C       -0.7078632511   -4.1797345862    5.3650468520
C       -0.6486828733   -5.5539493036    5.1238630820
C       -1.4868034891   -3.8367331607    3.1092990334
C        1.9959776804   -1.4836688375    3.0097179211
C       -1.1125094416   -3.3038664628    4.3520989040
C       -0.9977394376   -6.0827624791    3.8755466223
C       -1.4254663719   -5.2126317977    2.8561566149
C        1.6517682300   -1.1550317751    4.3938911743
C        0.5039679391   -1.0449878674    5.0926639046
O       -1.6788929391   -0.7809773051    3.4773051136
O       -2.0409311978   -1.2553507469    5.8390653278
S       -1.1945595590   -1.5071039878    4.6628211700
Cl      -0.9029930718   -7.8106144238    3.6128959340
Cl      -1.8846618622   -5.8188068689    1.2795513673
H        3.1721022227   -2.4704912780   -0.5996420251
H        0.7535040999   -2.3733137625   -0.0575009674
H        4.8444028421   -1.9253657582    1.1507126438
H        0.0082156151   -1.7503103803    2.1582209093
H        4.1205573302   -1.3114708919    3.4111286553
H       -0.4422195254   -3.7928951419    6.3451725326
H       -0.3311654208   -6.2252543734    5.9131251082
H       -1.8390762285   -3.1778665023    2.3204694382
H        2.5178849998   -0.9047720452    4.9978192312
H        0.5604515366   -0.6486940663    6.0953171367
29   

C        2.5734578829   -2.6848321704    0.6596351623
C        1.2554642832   -2.2938311106    0.8952038408
C        3.5372868187   -2.4853630232    1.6479296006
C        0.9003021654   -1.7157603927    2.1189710360
C        3.1792556008   -1.9079748764    2.8711480056
C       -0.3675984437   -4.1268021400    5.3952943011
C       -0.1314465808   -5.4684985440    5.0875332519
C       -1.3032771014   -3.8095130728    3.1961039829
C        1.8521548331   -1.5215584822    3.1399369982
C       -0.9418493079   -3.2789304740    4.4434223617
C       -0.4681329902   -5.9914041273    3.8328772323
C       -1.0648267463   -5.1508741760    2.8758067620
C        1.5406387527   -0.9859316772    4.4666903558
C        0.3870297600   -0.8071182444    5.1389706228
O       -1.9178532640   -0.8462711901    3.7027443726
O       -2.0339007529   -1.4145917498    6.0661834452
S       -1.2489687048   -1.5223053683    4.8269830782
Cl      -0.1467739891   -7.6761357353    3.4847161265
Cl      -1.5132833375   -5.7501919364    1.2934724403
H        2.8475408272   -3.1347392133   -0.2881951890
H        0.5047357782   -2.4304571551    0.1248081388
H        4.5644139453   -2.7829176361    1.4689274490
H       -0.1208992129   -1.3883025833    2.2347314893
H        3.9480696352   -1.7772281289    3.6245160559
H       -0.1058161956   -3.7432264757    6.3776534987
H        0.3176543924   -6.1188895485    5.8286890839
H       -1.7785507768   -3.1733924466    2.4545023131
H        2.4138149667   -0.6568920245    5.0208045665
H        0.4077313006   -0.2313877879    6.0519824589
29   

C        2.3659176059   -2.8769488760    0.7563735019
C        1.1395244435   -2.2302663418    0.9154029743
C        3.3036252702   -2.8415686520    1.7896264266
C        0.8467038009   -1.5625741660    2.1097194451
C        3.0086482323   -2.1720324941    2.9825202805
C       -0.2844701326   -4.0835682704    5.3895281684
C        0.0371692051   -5.4030320663    5.0626410658
C       -1.1442755165   -3.7649967285    3.1601172552
C        1.7694638624   -1.5350269365    3.1722012215
C       -0.8627691809   -3.2452780501    4.4319881379
C       -0.2164921579   -5.9123306366    3.7828558151
C       -0.8188431830   -5.0826334783    2.8201817443
C        1.4908088535   -0.8916382573    4.4613580667
C        0.3362431087   -0.7085524134    5.1266550653
O       -1.9686640380   -0.8655953478    3.7088764314
O       -2.0432100944   -1.4468068862    6.0733662020
S       -1.2619603942   -1.5102602767    4.8286032152
Cl       0.2158624828   -7.5665341060    3.4096650565
Cl      -1.1629410414   -5.6641955223    1.2053812919
H        2.5910540366   -3.3979221231   -0.1676566644
H        0.4138611964   -2.2394422209    0.1097267380
H        4.2601533100   -3.3374417177    1.6684445355
H       -0.0972955070   -1.0388224125    2.1829749382
H        3.7490240133   -2.1672121519    3.7746761381
H       -0.0833098331   -3.7086350619    6.3893461745
H        0.4907396362   -6.0459450588    5.8074773753
H       -1.6176231421   -3.1352356134    2.4120098550
H        2.3721646859   -0.5359872265    4.9853330630
H        0.3322136873   -0.0873220137    6.0094317974
29   

C        2.1189443601   -2.9641862620    0.8083438721
C        1.0730667861   -2.0431764093    0.9004697604
C        2.9581112553   -3.1710566756    1.9056941483
C        0.8578452998   -1.3431125841    2.0927729486
C        2.7451779627   -2.4648000090    3.0949964840
C       -0.2621460151   -4.0382270753    5.3847195031
C        0.1421202488   -5.3353840738    5.0592650864
C       -0.9870024331   -3.7181737568    3.1081498666
C        1.6814244415   -1.5556637811    3.2119421285
C       -0.8125533551   -3.2089899831    4.4030715131
C       -0.0015514793   -5.8313630257    3.7572539442
C       -0.5797681182   -5.0133662237    2.7703268871
C        1.4503236379   -0.8541780291    4.4870516315
C        0.2923686732   -0.6566461929    5.1360410143
O       -1.9503595605   -0.8575438986    3.6349304072
O       -2.1071142167   -1.4417778995    6.0009425240
S       -1.2796095726   -1.4868119854    4.7854142203
Cl       0.5397205259   -7.4534840915    3.3854303073
Cl      -0.7871281744   -5.5793088687    1.1268094005
H        2.2803883878   -3.5136761088   -0.1124886558
H        0.4257440511   -1.8697079065    0.0479978325
H        3.7726529434   -3.8831967793    1.8363166412
H        0.0494122627   -0.6211683693    2.1373227909
H        3.4011984238   -2.6439884194    3.9394047054
H       -0.1404536005   -3.6708971367    6.4000614804
H        0.5778503801   -5.9699666066    5.8216723914
H       -1.4314925315   -3.0932964888    2.3386071424
H        2.3445631737   -0.5193929744    5.0028071597
H        0.2660180389   -0.0277533463    6.0128004047
29   

C        2.0197058852   -2.9790542587    0.8334883193
C        1.1108992234   -1.9179968508    0.8657080453
C        2.7449845680   -3.3066531482    1.9822292418
C        0.9200584754   -1.1942870457    2.0480045003
C        2.5570457693   -2.5775318528    3.1619070809
C       -0.2683652944   -4.0097734086    5.3807505786
C        0.1562849680   -5.3043610541    5.0705361914
C       -0.9158818371   -3.6961218415    3.0797466848
C        1.6295380704   -1.5256280174    3.2132946678
C       -0.7910712135   -3.1852259743    4.3798911353
C        0.0582499325   -5.8033325869    3.7654403486
C       -0.4926877303   -4.9907581545    2.7586486332
C        1.4232965841   -0.7666093958    4.4665115469
C        0.2768085410   -0.6301812098    5.1448541026
O       -1.9038262407   -0.8381836274    3.5623813712
O       -2.1514445944   -1.4179849754    5.9249075703
S       -1.2792851451   -1.4635585048    4.7408921506
Cl       0.6232067694   -7.4219752413    3.4139820517
Cl      -0.6457138243   -5.5629794009    1.1112617707
H        2.1613855918   -3.5462607530   -0.0798326067
H        0.5497090970   -1.6557918312   -0.0243089143
H        3.4507065592   -4.1293630175    1.9596795332
H        0.2110108697   -0.3721603772    2.0586477611
H        3.1226383917   -2.8453548127    4.0472020853
H       -0.1823910700   -3.6403435865    6.3989628378
H        0.5719424877   -5.9348351777    5.8474938563
H       -1.3329542881   -3.0725953263    2.2938852185
H        2.3183978308   -0.3740799663    4.9381267449
H        0.2395273112   -0.0281250397    6.0397586167
29   

C        1.9862996208   -3.0011650717    0.8748661198
C        1.1725100751   -1.8653879095    0.8372850452
C        2.6043542519   -3.3730580206    2.0720124126
C        0.9729124730   -1.1076883991    1.9966991920
C        2.4046215978   -2.6121113485    3.2293891617
C       -0.2598335219   -4.0231741932    5.3991882987
C        0.1635712382   -5.3146725110    5.0737522235
C       -0.9074053129   -3.6823142990    3.1016392755
C        1.5741603006   -1.4811642216    3.2071219398
C       -0.7828276354   -3.1868987387    4.4080218998
C        0.0621145445   -5.7994633849    3.7635242606
C       -0.4890913367   -4.9751726414    2.7664462550
C        1.3733435136   -0.6667190348    4.4319323276
C        0.2687478577   -0.6225120063    5.1838498702
O       -1.9161471172   -0.8428440947    3.6175937919
O       -2.1438896400   -1.4427957775    5.9784878713
S       -1.2797387906   -1.4715772098    4.7879627904
Cl       0.6238819125   -7.4150920365    3.3934002520
Cl      -0.6481113971   -5.5308262347    1.1138759924
H        2.1360957147   -3.5930245468   -0.0213641179
H        0.6921667126   -1.5715687892   -0.0893782697
H        3.2351542372   -4.2542249348    2.1042354998
H        0.3343339661   -0.2303853040    1.9591738987
H        2.8871356283   -2.9112040782    4.1530050670
H       -0.1736318102   -3.6658915342    6.4217186902
H        0.5795949872   -5.9544888065    5.8429015223
H       -1.3215502431   -3.0481355971    2.3226591377
H        2.2507187981   -0.1544806936    4.8134456484
H        0.2456515774   -0.0459712729    6.0958068322
29   

C        2.0003828321   -3.1048964995    0.9057549761
C        1.2680018801   -1.9230255064    0.7621060791
C        2.5015660436   -3.4627452378    2.1603213932
C        1.0360326527   -1.1028048521    1.8720927091
C        2.2656681065   -2.6415594694    3.2685927536
C       -0.2216431638   -4.0651496165    5.3688865892
C        0.1873513616   -5.3468727940    4.9895927071
C       -0.9552556348   -3.6569823418    3.1079797929
C        1.5203713477   -1.4595771127    3.1377556883
C       -0.7805174986   -3.2000385077    4.4227920217
C        0.0344208996   -5.7933844966    3.6706208051
C       -0.5535943243   -4.9402750597    2.7198673431
C        1.2976309745   -0.5725293548    4.3104135501
C        0.2614730286   -0.5972849427    5.1532333188
O       -2.0310494924   -0.8778612933    3.7697996642
O       -2.0456716573   -1.5157562463    6.1290432945
S       -1.2805463708   -1.5028466960    4.8721488452
Cl       0.5788684561   -7.3977171248    3.2319536361
Cl      -0.7785614356   -5.4480963693    1.0595412760
H        2.1770279677   -3.7435312923    0.0473149966
H        0.8777499410   -1.6414321864   -0.2095530412
H        3.0687383251   -4.3795240767    2.2753016739
H        0.4638325132   -0.1883275144    1.7524882055
H        2.6579699885   -2.9283511381    4.2377057225
H       -0.0994238666   -3.7390833545    6.3982433083
H        0.6305290750   -6.0097687037    5.7232545345
H       -1.3986162880   -3.0002994754    2.3644549501
H        2.1072423706    0.1112526088    4.5445086395
H        0.2691291196    0.0031747620    6.0499163333
29   

C        3.0358100170   -3.5142521565    2.1404498623
C        1.9435410273   -3.0680821998    1.3896988488
C        3.3221623401   -2.9196053797    3.3734000003
C        1.1432099450   -2.0243885056    1.8682491589
C        2.5197146684   -1.8780574260    3.8524666956
C        0.1964572944   -4.2879078394    4.3849414729
C        0.1134506825   -5.3005893751    3.4287565390
C       -1.8099272164   -3.2959227657    3.4885416996
C        1.4311536507   -1.4136391991    3.0994111207
C       -0.7574682837   -3.2649746774    4.4135259142
C       -0.9184855121   -5.3152442206    2.4840938886
C       -1.8957565459   -4.3027942115    2.5174106231
C        0.5522199119   -0.3315478905    3.6110391879
C       -0.3455938780   -0.4263983433    4.5971876953
O       -1.8627381038   -1.7346844732    6.3623177563
O        0.5496148822   -2.1143376966    6.5032049032
S       -0.6062853675   -1.8995895755    5.6151253633
Cl      -0.9665909167   -6.5848337073    1.2806125729
Cl      -3.2068250536   -4.2724044655    1.3583538978
H        3.6571654256   -4.3214811899    1.7688662493
H        1.7127911106   -3.5335897448    0.4380293924
H        4.1643826639   -3.2653889962    3.9623505988
H        0.2920570170   -1.6939922667    1.2832473540
H        2.7393548433   -1.4307646887    4.8171276705
H        1.0164590274   -4.2851245120    5.0987191348
H        0.8659167149   -6.0797201593    3.4092514376
H       -2.5688493266   -2.5195701940    3.5087404464
H        0.5597851150    0.5930717418    3.0428696224
H       -0.9800491396    0.4103349854    4.8463339220
29   

C        3.0809464844   -3.5014722763    2.1262777587
C        2.0587131789   -3.0165094625    1.3048156266
C        3.2549277233   -2.9694585352    3.4074053425
C        1.2137728298   -1.9989771614    1.7625588275
C        2.4060161549   -1.9565956562    3.8670846438
C        0.1762341171   -4.3084755745    4.4116352957
C        0.0874235586   -5.3166446079    3.4512661142
C       -1.8244321672   -3.3017376686    3.5195674704
C        1.3783338008   -1.4600618123    3.0493728685
C       -0.7702445657   -3.2787185828    4.4425334497
C       -0.9457727849   -5.3225402454    2.5078315418
C       -1.9180901420   -4.3056338729    2.5464988861
C        0.4625115355   -0.3997601923    3.5265953024
C       -0.3440239897   -0.4472087316    4.5943177991
O       -1.8534769079   -1.7268368981    6.3881603521
O        0.5568792676   -2.1193785905    6.5174379070
S       -0.6031387542   -1.9065049331    5.6343298182
Cl      -1.0021511144   -6.5873199155    1.2996827503
Cl      -3.2317722674   -4.2648791925    1.3907468783
H        3.7378863903   -4.2872044180    1.7701208349
H        1.9188155428   -3.4300192263    0.3123315671
H        4.0476583287   -3.3395632812    4.0480258160
H        0.4205135851   -1.6365542639    1.1181836738
H        2.5495180278   -1.5522466411    4.8644567285
H        0.9966448484   -4.3131821785    5.1248699771
H        0.8359760484   -6.0994267940    3.4274410569
H       -2.5777252380   -2.5199940866    3.5418751681
H        0.3578190992    0.4635898698    2.8773851199
H       -0.9498382252    0.4049936956    4.8618086551
29   

C        3.1698814913   -3.4147972859    2.0460793353
C        2.2475209620   -2.8242653504    1.1776218121
C        3.2061505390   -3.0280422026    3.3885450183
C        1.3589735640   -1.8526162543    1.6520216687
C        2.3138795507   -2.0611184994    3.8644769393
C        0.1129596073   -4.3357336293    4.4570000257
C        0.0098676169   -5.3599800849    3.5151913621
C       -1.8628956163   -3.3079733640    3.5343963382
C        1.3698433411   -1.4732091673    3.0057975980
C       -0.8136611426   -3.2875097810    4.4627955533
C       -1.0200837997   -5.3655124642    2.5680203665
C       -1.9724971026   -4.3293848004    2.5817958227
C        0.4228466449   -0.4465999240    3.4780043970
C       -0.3341251942   -0.4599271462    4.5854622072
O       -1.8976053371   -1.6884932354    6.3671351717
O        0.4982718723   -2.1282455173    6.5477084895
S       -0.6382405937   -1.9025723348    5.6379072502
Cl      -1.0994977666   -6.6559568632    1.3885917381
Cl      -3.2831328690   -4.2884392376    1.4225709349
H        3.8605626278   -4.1650912227    1.6774971877
H        2.2207324544   -3.1188853808    0.1345161464
H        3.9298104346   -3.4715918020    4.0633336737
H        0.6482794859   -1.4050596872    0.9661230714
H        2.3714543180   -1.7582765672    4.9046825375
H        0.9268250712   -4.3453825359    5.1776366374
H        0.7421070715   -6.1584605405    3.5108778606
H       -2.6021284564   -2.5126000293    3.5388824642
H        0.2632147657    0.3886602152    2.8036712584
H       -0.9084150981    0.4117650371    4.8598806332
29   

C        3.2160329767   -3.2053883627    1.8149552852
C        2.4541725357   -2.3915136005    0.9730915157
C        3.0638379099   -3.1055728907    3.1999173778
C        1.5313385569   -1.4898784386    1.5150425883
C        2.1404334325   -2.2055430817    3.7428826924
C       -0.0129541726   -4.4294541607    4.7450761874
C       -0.0995338593   -5.5367960023    3.9001932616
C       -1.7684882932   -3.3540636287    3.4899995438
C        1.3408195966   -1.4058988107    2.9079785998
C       -0.8399789786   -3.3196001719    4.5390145306
C       -1.0113652463   -5.5628943767    2.8388065056
C       -1.8585983381   -4.4582291749    2.6327859779
C        0.3671113208   -0.4334560458    3.4188229611
C       -0.4028945394   -0.4581983779    4.5205270722
O       -1.9951018107   -1.6293731178    6.3103714969
O        0.3907711727   -2.0209597308    6.5860658097
S       -0.7142745452   -1.8598546862    5.6255099483
Cl      -1.0801415279   -6.9663501211    1.7955104122
Cl      -3.0194630157   -4.4384683197    1.3230240991
H        3.9313767341   -3.9039668453    1.3952997082
H        2.5787672240   -2.4587198653   -0.1018712731
H        3.6700353667   -3.7181560347    3.8577134660
H        0.9501492316   -0.8672130560    0.8439370031
H        2.0785611948   -2.1205805720    4.8201471130
H        0.7023721505   -4.4297922868    5.5638985604
H        0.5484031958   -6.3893248082    4.0656128318
H       -2.4314549379   -2.5098930719    3.3272932555
H        0.2057255118    0.4259303376    2.7758470755
H       -0.9877535691    0.4130030986    4.7741369888
29   

C        3.4627986280   -3.0057590369    1.7373984944
C        2.7928681651   -2.0833422578    0.9316437065
C        3.1272063424   -3.1162546301    3.0880572124
C        1.7791146221   -1.2848498101    1.4726140760
C        2.1134532651   -2.3185329755    3.6301819131
C       -0.0951520346   -4.4991458203    4.8108691901
C       -0.2639959028   -5.6467449040    4.0344197120
C       -1.8971682775   -3.4406758266    3.6081700543
C        1.4007154955   -1.4117926201    2.8253416686
C       -0.9047927562   -3.3780384720    4.5957897212
C       -1.2428054205   -5.7030316148    3.0354188783
C       -2.0714653250   -4.5860679483    2.8211462306
C        0.3485800079   -0.5186111927    3.3172241204
C       -0.4185660792   -0.5318434065    4.4236353826
O       -1.9409844662   -1.5889138990    6.3365299169
O        0.4453651887   -2.0159999430    6.5270185760
S       -0.6963556526   -1.8747765869    5.6073933884
Cl      -1.4189143442   -7.1596430221    2.0812997610
Cl      -3.3161276444   -4.6034590325    1.5905508706
H        4.2493805535   -3.6242758756    1.3195436486
H        3.0603581025   -1.9847697525   -0.1144598818
H        3.6633103038   -3.8119086646    3.7237352509
H        1.2773061045   -0.5742911380    0.8251834943
H        1.9273946384   -2.4011030495    4.6898765382
H        0.6657032477   -4.4804529650    5.5874011973
H        0.3686072723   -6.5093756854    4.2071739398
H       -2.5494836443   -2.5886352766    3.4426463936
H        0.1419749517    0.3224581287    2.6631422454
H       -1.0349678875    0.3289716741    4.6349409510
29   

C        2.4743790396   -3.0684665023    0.1957784974
C        3.2868288793   -2.1548306000    0.8680549794
C        1.1474110582   -3.2349988179    0.5939707745
C        2.7752897848   -1.4186723338    1.9424313075
C        0.6344778948   -2.4988286293    1.6677963256
C       -0.3616455727   -3.5511818390    5.8172335776
C        0.0855965826   -4.8350253594    6.1370163822
C       -1.3045749077   -4.4110560340    3.7715431111
C        1.4434006004   -1.5927882359    2.3768946470
C       -1.0487231424   -3.3234138314    4.6202462466
C       -0.1487930403   -5.9155139466    5.2781111058
C       -0.8560542013   -5.7007664927    4.0811860259
C        1.0039482807   -0.7582949509    3.4965637351
C       -0.1472019334   -0.6230432418    4.1848405518
O       -2.3130507361   -1.6427443062    2.8841420292
O       -2.5221850818   -1.1556697438    5.2609602447
S       -1.6396366077   -1.6500085508    4.1933582643
Cl       0.4343337015   -7.5072193359    5.7137983414
Cl      -1.1871375389   -7.0158425205    2.9743788699
H        2.8681240374   -3.6392277954   -0.6379410198
H        4.3152816224   -2.0141786192    0.5549575587
H        0.5065517951   -3.9298708600    0.0627237970
H        3.4318613706   -0.7138281587    2.4402283110
H       -0.4048013285   -2.6432020488    1.9026089331
H       -0.1766430112   -2.7297061737    6.5039760642
H        0.6203328527   -5.0028126902    7.0645059251
H       -1.8660302823   -4.2613351832    2.8532998433
H        1.7612286067   -0.0578594593    3.8334372538
H       -0.2246527665    0.1920357139    4.8885746370
