23

C      2.03505   -1.20642    0.07376
C      1.08591   -0.37480    0.66274
C      1.86058   -1.04256    2.86779
C      2.91191   -1.95308    0.87212
C      1.00867   -0.29651    2.05407
C      2.81591   -1.85974    2.27195
N      0.60850    2.24075    2.98090
N      3.64817   -4.36561    2.89447
O     -1.26914    1.00653    1.81317
O     -0.49166    0.24579    4.14642
O      5.31474   -2.39933    2.96409
O      3.45683   -2.61245    4.70809
O      3.84563   -2.79214    0.34903
S     -0.21804    0.76860    2.80656
S      3.94817   -2.76210    3.33660
H      2.09164   -1.28508   -1.01007
H      0.39381    0.19401    0.05016
H      1.78011   -1.00933    3.94979
H      0.06229    2.98243    2.54409
H      0.76604    2.43355    3.96941
H      4.40734   -4.71897    2.31437
H      3.52181   -4.92253    3.73913
H      3.82001   -2.74889   -0.62060
