28

C     -2.01498   -0.94966   -0.35724
C     -0.62560   -0.89917   -0.26237
C     -2.68925   -2.18246   -0.25040
C      1.46571   -3.82831    0.16957
C      0.21288   -4.41167    0.14834
C     -0.72449   -3.32987   -0.01309
C      0.02357   -2.12207   -0.08700
C     -0.04847   -5.89225    0.11844
C     -2.29129   -6.37474    1.41318
C     -0.74892   -6.49411    1.35355
N     -2.07209   -3.35710   -0.07657
N      1.35726   -2.46030    0.03989
N     -0.43358   -8.00566    1.35155
O     -2.69630   -5.13341    1.89412
H     -2.59108   -0.04094   -0.49686
H     -0.08714    0.04286   -0.32182
H     -3.77511   -2.21251   -0.29302
H      2.43970   -4.29543    0.24367
H      0.92511   -6.38375   -0.00799
H     -0.64456   -6.14321   -0.76974
H     -2.70468   -6.60352    0.41706
H     -2.67535   -7.12975    2.11435
H     -0.32181   -6.11241    2.28402
H      2.13654   -1.81612    0.00895
H     -0.85390   -8.47553    2.16319
H      0.57651   -8.18855    1.36910
H     -0.81279   -8.45436    0.50801
H     -2.64861   -4.47912    1.14583
