22

C      2.15027   -0.69281    0.12916
C      0.97945   -0.23976    0.69033
C      1.65975   -1.10119    2.87105
C      3.17702   -1.36902    0.89765
C      0.72733   -0.43217    2.07059
C      2.83259   -1.56844    2.29800
N     -0.34124    1.91154    2.89909
N      5.41389   -1.77862    2.93882
O      4.28081   -1.72528    0.38706
O     -1.85804    0.20874    1.84665
O     -0.89614   -0.31592    4.14437
O      3.64556   -2.21989    4.75365
O      3.94275   -3.93189    2.93578
S     -0.72413    0.23124    2.78579
S      3.92844   -2.50969    3.33661
H      2.35489   -0.54789   -0.92855
H      0.23534    0.27030    0.08407
H      1.46928   -1.25922    3.92849
H     -1.21234    2.39345    3.13248
H      0.31778    2.03278    3.67014
H      6.14368   -2.40456    3.28661
H      5.42503   -1.78333    1.90148
