27

C      4.64980    0.56297   -0.80352
C      4.55727    1.59505   -1.73463
C      2.25724    1.73978   -1.60636
C      1.77081   -0.89171    0.87617
C      2.20741    0.70337   -0.65514
C      1.15069    0.04463    0.08267
C      3.44109    0.11583   -0.25806
C     -0.32715    0.29778   -0.01365
C     -2.53356   -0.28128   -1.08937
C     -1.02306   -0.50322   -1.12962
N      3.40179    2.17701   -2.13468
N      3.14916   -0.85718    0.67055
N     -0.53793   -0.06548   -2.44752
O     -3.03717   -0.83472    0.13256
H      5.61330    0.14257   -0.52766
H      5.46355    1.98615   -2.19353
H      1.34326    2.21979   -1.95250
H      1.33866   -1.58665    1.58474
H     -0.81168    0.03995    0.93186
H     -0.51000    1.36353   -0.19563
H     -2.99817   -0.77613   -1.95628
H     -2.74308    0.79517   -1.16001
H     -0.84125   -1.57389   -0.93730
H      3.82592   -1.42689    1.15769
H     -0.92186   -0.66734   -3.17518
H      0.47351   -0.17767   -2.49181
H     -3.98257   -0.63170    0.19015
