29   

C        1.8647358474    4.6804628345   -3.2715301258
C        1.9337219050    5.2418581985   -1.9949016349
C        1.2761892810    3.4264092053   -3.4452587824
C        1.4218091310    4.5473492974   -0.8928424842
C        0.7664602754    2.7313858241   -2.3428903109
C        0.8485549361    3.2749993255   -1.0405837177
C        0.2759675730    2.6257793909    0.1917838203
C       -0.6900890003   -1.5251647867    0.0180254348
C        0.2435905298   -0.8760610885   -1.0127244399
C       -1.6667954892   -0.4781065807    0.5686000560
C        0.9758258861    0.3149961608   -0.3861292338
C       -0.9093182064    0.7183841658    1.1521952131
N       -0.0019222566    1.2700659541    0.1449486554
O        0.0226928615    3.2831353354    1.1959101345
H        2.2550102002    5.2224455131   -4.1257460159
H        2.3777122215    6.2212032574   -1.8558860287
H        1.1998190237    2.9979477419   -4.4382998255
H        1.4735284548    5.0075839164    0.0891036674
H        0.2707240620    1.7845182314   -2.5193105931
H       -0.0958249157   -1.9376186491    0.8405866287
H       -1.2451624011   -2.3481018452   -0.4435297737
H       -0.3431298219   -0.5343259927   -1.8715220589
H        0.9706172230   -1.6118492049   -1.3701660322
H       -2.3012404622   -0.9253063850    1.3402293387
H       -2.3157275640   -0.1288445485   -0.2411005987
H        1.6564438616    0.7600866301   -1.1152809873
H        1.6020648021   -0.0442420300    0.4376771252
H       -1.6353870305    1.4706809160    1.4798408375
H       -0.3341618441    0.4047600991    2.0300701111
29   

C        1.9507668030    4.6068136652   -3.2727044525
C        2.0749468915    5.1406065559   -1.9877295983
C        1.2279321764    3.4275563996   -3.4666152136
C        1.4788441244    4.4951837114   -0.8980696840
C        0.6349477855    2.7818553144   -2.3760954245
C        0.7577989427    3.3052174171   -1.0702888146
C        0.1226482582    2.6820841782    0.1431417382
C       -0.6042883416   -1.5053253150    0.0232997331
C        0.2713255681   -0.8094678812   -1.0279480756
C       -1.6027335869   -0.5032539563    0.6171636489
C        0.9769553863    0.4027351891   -0.4117901217
C       -0.8738884455    0.7140052838    1.1947145789
N       -0.0206725747    1.3103150615    0.1654569471
O       -0.1965993966    3.3646344364    1.1104995818
H        2.4062871389    5.1116086475   -4.1173582913
H        2.6280346426    6.0602389777   -1.8330206898
H        1.1160302295    3.0191153984   -4.4647160981
H        1.5744263900    4.9273903238    0.0932616650
H        0.0492995519    1.8870830045   -2.5533921085
H        0.0305858357   -1.9039784196    0.8219445324
H       -1.1417344863   -2.3436988220   -0.4313099786
H       -0.3544857708   -0.4817345440   -1.8642598354
H        1.0145118375   -1.5127374202   -1.4163074556
H       -2.1965217703   -0.9841593726    1.4007656733
H       -2.2886377692   -0.1689281475   -0.1680896792
H        1.6158689004    0.8786239816   -1.1583629141
H        1.6444037941    0.0601305031    0.3862697930
H       -1.6192757063    1.4310357729    1.5561695993
H       -0.2596471984    0.4123141408    2.0498254433
29   

C        1.9933700517    4.5205449115   -3.2536551040
C        2.1562229284    5.0152333483   -1.9568025100
C        1.1655524847    3.4173690835   -3.4770398705
C        1.4897237337    4.4093908162   -0.8852766184
C        0.5027191592    2.8112045923   -2.4042158837
C        0.6528598945    3.3047590175   -1.0913114293
C       -0.0369390100    2.6934606582    0.0982890449
C       -0.5443922449   -1.5007510716    0.0284985039
C        0.2808522650   -0.7635898628   -1.0356346524
C       -1.5494778513   -0.5365415346    0.6725425668
C        0.9727798844    0.4565005232   -0.4201292500
C       -0.8347567138    0.6880326465    1.2532783545
N       -0.0318494650    1.3230502510    0.2065025505
O       -0.4419275821    3.3958440072    1.0175690096
H        2.5036789451    4.9952696208   -4.0843132154
H        2.7947937351    5.8732774530   -1.7791749728
H        1.0300515261    3.0365496393   -4.4831099468
H        1.6154258908    4.8052635371    0.1177083028
H       -0.1521083718    1.9677272144   -2.5928842483
H        0.1246276952   -1.8976429876    0.7996288639
H       -1.0740383278   -2.3442294524   -0.4258511552
H       -0.3780694416   -0.4381054990   -1.8469897902
H        1.0301948901   -1.4398692933   -1.4585983160
H       -2.1071906606   -1.0482655904    1.4630588848
H       -2.2672109951   -0.2048507726   -0.0850152057
H        1.5748178748    0.9610198978   -1.1781542384
H        1.6752461483    0.1197991470    0.3498259947
H       -1.5876178549    1.3748481476    1.6552512615
H       -0.1849959784    0.3865684332    2.0815980266
29   

C        2.0270634042    4.4438574686   -3.2805075369
C        2.2463123067    4.8929576843   -1.9750575965
C        1.0990052756    3.4264380540   -3.5185330869
C        1.5329467946    4.3300876313   -0.9102712197
C        0.3898762638    2.8631905109   -2.4518979040
C        0.5885659209    3.3207272298   -1.1339230950
C       -0.1414099641    2.7241810341    0.0409898917
C       -0.4915108523   -1.4446767576    0.0613514415
C        0.2935870672   -0.6895248323   -1.0206446272
C       -1.4811395267   -0.4957724784    0.7515676611
C        0.9950953946    0.5300686692   -0.4159210118
C       -0.7556658903    0.7266359684    1.3248371334
N        0.0032020765    1.3776856913    0.2551823682
O       -0.6403034873    3.4469804838    0.8952079013
H        2.5736379501    4.8859391263   -4.1061015356
H        2.9655451981    5.6819177390   -1.7858209896
H        0.9240618937    3.0780551174   -4.5302628522
H        1.7021466194    4.6860976119    0.1010397664
H       -0.3344679127    2.0794313466   -2.6448779732
H        0.2053384355   -1.8466250493    0.8046534665
H       -1.0303551246   -2.2860893077   -0.3859979110
H       -0.3935412302   -0.3604601053   -1.8067768649
H        1.0342438607   -1.3548396597   -1.4751724461
H       -2.0090117721   -1.0221340893    1.5528267256
H       -2.2260319962   -0.1594143264    0.0226950556
H        1.5631877921    1.0486868658   -1.1908044723
H        1.7289684864    0.1942586417    0.3245068117
H       -1.4980324127    1.4000002577    1.7665935386
H       -0.0733669780    0.4194664269    2.1242083949
29   

C        2.0520228412    4.3650697164   -3.3226353158
C        2.3186813914    4.7486295886   -2.0049515665
C        1.0389812078    3.4385219054   -3.5853146805
C        1.5668771688    4.2125830212   -0.9528467427
C        0.2916216701    2.9020433905   -2.5309769225
C        0.5360635878    3.2990662160   -1.2029874935
C       -0.2392574638    2.7103111832   -0.0512225979
C       -0.4427979907   -1.4078161027    0.0800754708
C        0.3378915965   -0.6443720896   -0.9995939311
C       -1.4331493029   -0.4664161315    0.7807477226
C        1.0351048703    0.5765262993   -0.3926836360
C       -0.7087220775    0.7548643264    1.3587308470
N        0.0382313131    1.4124189910    0.2849942795
O       -0.8897551268    3.4339626868    0.6922068357
H        2.6283596913    4.7868947003   -4.1385371232
H        3.1046085552    5.4659564965   -1.7967955320
H        0.8286710731    3.1396695400   -4.6061192198
H        1.7725166113    4.5157116287    0.0686226864
H       -0.4953211943    2.1854260114   -2.7396299968
H        0.2573716244   -1.8130656028    0.8183576692
H       -0.9807278494   -2.2476069132   -0.3714596977
H       -0.3521756794   -0.3142029605   -1.7828105302
H        1.0802577510   -1.3041749411   -1.4593551019
H       -1.9559431975   -1.0000094203    1.5804861071
H       -2.1823889518   -0.1277800360    0.0572656325
H        1.5901089892    1.1037997848   -1.1721850145
H        1.7774652132    0.2456228686    0.3413861421
H       -1.4472762840    1.4221074607    1.8154810067
H       -0.0179431906    0.4443965862    2.1493619559
29   

C        1.9564951913    4.4147738154   -3.3028582846
C        2.3231489854    4.6322581710   -1.9712456185
C        0.8432750427    3.6219719968   -3.5966777613
C        1.5784828776    4.0548856240   -0.9359369287
C        0.1018139932    3.0459743443   -2.5591159176
C        0.4674564300    3.2511289130   -1.2180446058
C       -0.3382812286    2.6448241007   -0.0958331504
C       -0.3290223946   -1.4195441120    0.0976778476
C        0.4854017896   -0.6210134409   -0.9316299269
C       -1.3826676381   -0.5167198542    0.7559888187
C        1.1142632415    0.6165384423   -0.2819184207
C       -0.7229176779    0.7184408624    1.3776674145
N        0.0518520592    1.4085301857    0.3454717757
O       -1.2840924846    3.2491268916    0.3927398257
H        2.5293524285    4.8660859857   -4.1053275469
H        3.1805446011    5.2542081556   -1.7396717230
H        0.5495495108    3.4589250154   -4.6275666139
H        1.8594156338    4.2355796037    0.0961570923
H       -0.7686064535    2.4405768269   -2.7884204248
H        0.3432402864   -1.8133264815    0.8673348697
H       -0.8179641954   -2.2690223552   -0.3900422664
H       -0.1735178558   -0.3030971790   -1.7464967278
H        1.2688122895   -1.2541569423   -1.3594715855
H       -1.9267602673   -1.0735248235    1.5251312038
H       -2.1060530182   -0.1927940567    0.0000993098
H        1.6807779427    1.1699194592   -1.0355709722
H        1.8321711515    0.3070211595    0.4848750305
H       -1.4954970197    1.3612009027    1.8126819509
H       -0.0582405397    0.4183641746    2.1942682492
29   

C        1.9539247250    4.5515157228   -3.3187675453
C        2.4070232822    4.5300060925   -1.9968099501
C        0.7364137222    3.9479638052   -3.6437823921
C        1.6517733947    3.8891113771   -1.0073823749
C       -0.0149405867    3.3111480234   -2.6499595086
C        0.4557238615    3.2344389562   -1.3281257146
C       -0.4009551480    2.6217430880   -0.2491176929
C       -0.2326970212   -1.4004506417    0.1316966193
C        0.6267792632   -0.6060548873   -0.8641340153
C       -1.3590370511   -0.5150459222    0.6833941533
C        1.1705749425    0.6751096716   -0.2186700685
C       -0.7808144583    0.7596839936    1.3028947791
N        0.0389815591    1.4471841895    0.3035105214
O       -1.5393691373    3.0300112268   -0.0550824374
H        2.5365565132    5.0480654391   -4.0867215709
H        3.3393403162    5.0182870698   -1.7361941811
H        0.3677632139    3.9806528258   -4.6628939038
H        1.9990018072    3.8968023026    0.0201658143
H       -0.9728902170    2.8657177678   -2.8978790546
H        0.3953371920   -1.7465836060    0.9593654553
H       -0.6586815139   -2.2809318246   -0.3600791847
H        0.0152924667   -0.3373447800   -1.7322436389
H        1.4567415840   -1.2258946264   -1.2168382731
H       -1.9361013251   -1.0639615615    1.4339833866
H       -2.0389788829   -0.2401493128   -0.1301084230
H        1.7632068624    1.2196074278   -0.9580166993
H        1.8458397649    0.4192845992    0.6044225994
H       -1.5967652917    1.3916915644    1.6694876947
H       -0.1617892723    0.5065229319    2.1697667002
29   

C        1.9543470795    4.5980514931   -3.3094703262
C        2.4407198909    4.4115961096   -2.0131405050
C        0.6864093754    4.1199465673   -3.6475770492
C        1.6678471408    3.7296541807   -1.0656286703
C       -0.0815116244    3.4416345873   -2.6948374250
C        0.4186642098    3.1916231022   -1.4044098548
C       -0.4615813800    2.5462008064   -0.3670669440
C       -0.2145657246   -1.4004818146    0.2363342042
C        0.6459718977   -0.6407232221   -0.7845116035
C       -1.3454465861   -0.4985937902    0.7496924823
C        1.1806528546    0.6684409637   -0.1890303085
C       -0.7716712827    0.8001284356    1.3224908151
N        0.0449420713    1.4570684856    0.3002046945
O       -1.6470937649    2.8451720314   -0.2829798735
H        2.5504261192    5.1261136318   -4.0454083708
H        3.4131072630    4.8047889837   -1.7385498476
H        0.2913721231    4.2817795977   -4.6442358441
H        2.0441514094    3.6157398666   -0.0547137098
H       -1.0774194749    3.0955684929   -2.9526812046
H        0.4110380727   -1.7136093294    1.0787688074
H       -0.6357781516   -2.2997977406   -0.2245775519
H        0.0371262521   -0.4094631581   -1.6652392839
H        1.4804961669   -1.2695009782   -1.1095950660
H       -1.9240684039   -1.0205383429    1.5180304938
H       -2.0231067140   -0.2564421951   -0.0762062680
H        1.7684908721    1.1819961049   -0.9530434720
H        1.8576321977    0.4507320563    0.6435699177
H       -1.5887615976    1.4445421737    1.6646664947
H       -0.1527924473    0.5810769931    2.1986530736
29   

C        1.9171664820    4.6577428070   -3.2558007534
C        2.4338846950    4.3230931709   -2.0023057071
C        0.6174846338    4.2742066780   -3.5912289214
C        1.6581560684    3.5898808287   -1.0962458673
C       -0.1527587103    3.5434979519   -2.6801863693
C        0.3702120281    3.1489363833   -1.4342014986
C       -0.5136245038    2.4340216378   -0.4489236937
C       -0.1858290103   -1.4305013243    0.3866979406
C        0.6555096318   -0.7134505688   -0.6783885440
C       -1.3189121785   -0.5136115258    0.8656738607
C        1.1836976631    0.6284128239   -0.1550876968
C       -0.7503360565    0.8158933639    1.3708946342
N        0.0519997049    1.4359654201    0.3146187933
O       -1.7216001721    2.6420806549   -0.4267784833
H        2.5153579162    5.2260177184   -3.9593569954
H        3.4330957732    4.6415524246   -1.7271976536
H        0.1999548465    4.5483295438   -4.5535796714
H        2.0643752540    3.3686125516   -0.1152484609
H       -1.1703779712    3.2682718375   -2.9392674155
H        0.4510883755   -1.6968955912    1.2366274768
H       -0.6033733357   -2.3544585025   -0.0264129504
H        0.0346364596   -0.5312908435   -1.5622529998
H        1.4927677151   -1.3490379486   -0.9826987579
H       -1.8874770611   -1.0026566743    1.6625398152
H       -2.0051346688   -0.3169776070    0.0346399259
H        1.7490886734    1.1046992546   -0.9586631517
H        1.8789264861    0.4594693157    0.6738360589
H       -1.5699283153    1.4702605352    1.6876236583
H       -0.1235822982    0.6434643083    2.2517950896
29   

C        1.9352651835    4.7244554384   -3.2664317516
C        2.4745086259    4.2589989288   -2.0659619272
C        0.6101603503    4.4277857194   -3.5870837388
C        1.6946936394    3.4849490725   -1.1979881731
C       -0.1641103393    3.6554297030   -2.7148905084
C        0.3730958681    3.1380447618   -1.5192833069
C       -0.5151527882    2.3495080386   -0.5965922448
C       -0.1838044460   -1.4242487140    0.4777946137
C        0.6558934330   -0.7694725228   -0.6263412525
C       -1.3085403534   -0.4751229368    0.9093978109
C        1.1948009086    0.5943325321   -0.1770828524
C       -0.7296961176    0.8758215815    1.3437601701
N        0.0777577817    1.4404006854    0.2603439713
O       -1.7329788738    2.4895417182   -0.6294061642
H        2.5370718212    5.3243334047   -3.9400268202
H        3.4961031767    4.5073585810   -1.8010583788
H        0.1766174108    4.7988685324   -4.5090113387
H        2.1289170068    3.1712466113   -0.2553636060
H       -1.1979242575    3.4429382277   -2.9692205624
H        0.4547225076   -1.6493624759    1.3383232265
H       -0.6086800694   -2.3657950512    0.1148386474
H        0.0314938189   -0.6298090654   -1.5154590411
H        1.4878699830   -1.4249722934   -0.9016705483
H       -1.8798686931   -0.9177456045    1.7309530614
H       -1.9945888446   -0.3183150455    0.0697190980
H        1.7502260335    1.0219038107   -1.0143890168
H        1.8995394205    0.4649269442    0.6509769148
H       -1.5451588050    1.5521182658    1.6231199263
H       -0.1058241724    0.7453620362    2.2338115700
29   

C        1.9254152696    4.8112535764   -3.2493912966
C        2.4939975544    4.2216272673   -2.1199846846
C        0.5784984748    4.5910121290   -3.5349758117
C        1.7207565962    3.4034737907   -1.2870287281
C       -0.1891317453    3.7739669140   -2.6986631377
C        0.3695258337    3.1418234348   -1.5677926079
C       -0.5160935644    2.2740913200   -0.7136222254
C       -0.2076964760   -1.4075216700    0.6004714439
C        0.6414461068   -0.8212952781   -0.5330947415
C       -1.3300537112   -0.4288511418    0.9649801061
C        1.1855913129    0.5625070945   -0.1588206414
C       -0.7476902199    0.9423744180    1.3278060421
N        0.0788736466    1.4458954107    0.2283664508
O       -1.7368996749    2.3585256471   -0.7969642362
H        2.5226752533    5.4450627451   -3.8953912794
H        3.5353709454    4.4069585999   -1.8818585415
H        0.1232032418    5.0531909528   -4.4037205140
H        2.1911841094    3.0027379655   -0.3971571178
H       -1.2370751217    3.6169257544   -2.9349268819
H        0.4232266219   -1.5850717131    1.4775380548
H       -0.6346465267   -2.3663917328    0.2888708439
H        0.0226758960   -0.7288006428   -1.4322624401
H        1.4713170479   -1.4955105392   -0.7665410471
H       -1.9130480842   -0.8206296806    1.8039060016
H       -2.0063117135   -0.3176076177    0.1101998942
H        1.7389892656    0.9380169423   -1.0223753516
H        1.8913132602    0.4760784975    0.6740353340
H       -1.5632292980    1.6378133489    1.5551793735
H       -0.1380210701    0.8598150484    2.2332403935
29   

C        1.8697208570    4.6086564571   -3.5501872682
C        2.1028271112    3.2634308751   -3.2656953641
C        0.8602748134    5.2882379444   -2.8708231714
C        1.3349775302    2.6027751988   -2.2986016715
C        0.0959748811    4.6233124693   -1.9066492168
C        0.3195241318    3.2657482849   -1.5883655174
C       -0.5218261705    2.6362666259   -0.5067391755
C        0.1577725351   -1.4289608685    0.6316675748
C        1.2804028199   -0.5664512055    0.0385596205
C       -1.2009304323   -0.9565769488    0.0979697034
C        1.0241710995    0.9122922583    0.3459381231
C       -1.4053437593    0.5356069189    0.3762687005
N       -0.2880606062    1.3022504040   -0.1759871354
O       -1.5001547137    3.2226845514   -0.0556308063
H        2.4636005011    5.1211331651   -4.2987916412
H        2.8759818275    2.7256354695   -3.8028245901
H        0.6660854913    6.3328435511   -3.0869477170
H        1.5289701747    1.5486450882   -2.1503984616
H       -0.6817317681    5.1744230970   -1.3869740983
H        0.1701115902   -1.3427103675    1.7236251783
H        0.3156206280   -2.4811987985    0.3743746430
H        1.3204276987   -0.7134829864   -1.0456669126
H        2.2438712891   -0.8715001262    0.4585367056
H       -2.0075691822   -1.5325456130    0.5622381050
H       -1.2431156562   -1.1264541439   -0.9827139400
H        1.8356634072    1.5269033397   -0.0511214263
H        1.0321127953    1.0577889015    1.4316951143
H       -2.3534140625    0.8553592940   -0.0702083361
H       -1.4692836998    0.7084284138    1.4562077442
29   

C        1.9081980527    4.5812475785   -3.4995645133
C        2.0263038174    3.2033311528   -3.3145614653
C        0.9644066301    5.2954245940   -2.7620573240
C        1.2120727534    2.5446799675   -2.3850198052
C        0.1529695080    4.6320861694   -1.8358083016
C        0.2739641300    3.2451463553   -1.6088681681
C       -0.6309372608    2.5946446853   -0.5969014588
C        0.2233091509   -1.3902120531    0.6800015925
C        1.2997244348   -0.5128953596    0.0265502868
C       -1.1641284675   -0.9761971884    0.1732269697
C        1.0103326553    0.9672201377    0.2962429993
C       -1.4095585046    0.5153424404    0.4196783391
N       -0.3338071959    1.3029228027   -0.1837076268
O       -1.6421541639    3.1631603740   -0.1992172115
H        2.5377866635    5.0927012706   -4.2191329758
H        2.7438489297    2.6402115907   -3.9006765234
H        0.8562419312    6.3646263006   -2.9060215270
H        1.3062765639    1.4685996452   -2.3056797687
H       -0.5792421051    5.2032036908   -1.2733638408
H        0.2649650059   -1.2701076525    1.7680051252
H        0.4065722194   -2.4444878199    0.4491989898
H        1.3103640825   -0.6926365449   -1.0533355176
H        2.2848672829   -0.7763813291    0.4237919336
H       -1.9383724909   -1.5654198320    0.6745160806
H       -1.2305560627   -1.1759251042   -0.9011872789
H        1.7896270732    1.5875125539   -0.1526057426
H        1.0561192019    1.1490812955    1.3755097325
H       -2.3805509863    0.7902438672   -0.0070684081
H       -1.4492537294    0.7145601028    1.4961044008
29   

C        1.9695097656    4.5744862383   -3.4430684840
C        1.9900696593    3.1814452446   -3.3555147931
C        1.0758366808    5.3010875509   -2.6554682726
C        1.1307516261    2.5196872818   -2.4700307991
C        0.2188237997    4.6339586020   -1.7738079588
C        0.2538436721    3.2319678160   -1.6370129072
C       -0.7185122337    2.5597071338   -0.7068303022
C        0.2582967849   -1.3392326691    0.7034412647
C        1.2995024829   -0.4555923639    0.0030747468
C       -1.1501377393   -0.9605432053    0.2280591185
C        0.9927949667    1.0245744256    0.2516417962
C       -1.4190054908    0.5297065319    0.4581075959
N       -0.3741550529    1.3262138034   -0.1870526446
O       -1.7676733735    3.1079418997   -0.3875135595
H        2.6336339362    5.0890735051   -4.1285557438
H        2.6652677223    2.6109853659   -3.9833601886
H        1.0399797661    6.3822734429   -2.7287199784
H        1.1413976902    1.4359383132   -2.4548254822
H       -0.4816494881    5.2094348666   -1.1765152690
H        0.3278069865   -1.1976506046    1.7874111005
H        0.4548656991   -2.3941824775    0.4870752792
H        1.2826942507   -0.6560977224   -1.0730150972
H        2.3002617118   -0.6940285043    0.3764316641
H       -1.8988486367   -1.5569570598    0.7587300488
H       -1.2411130011   -1.1788669385   -0.8410025058
H        1.7481848570    1.6452016091   -0.2351878928
H        1.0715735869    1.2304887793    1.3246131768
H       -2.4074458199    0.7756048901    0.0543720185
H       -1.4338142101    0.7462108477    1.5316633754
29   

C        1.9843727746    4.5587199872   -3.3703564206
C        1.9440880322    3.1628707666   -3.3807280701
C        1.1225238008    5.2676606313   -2.5316921043
C        1.0575696644    2.4799349764   -2.5394217527
C        0.2379054133    4.5787703334   -1.6949267519
C        0.2217359212    3.1717670371   -1.6503990003
C       -0.7972227827    2.4656673114   -0.7978951973
C        0.2982803669   -1.3311480633    0.7290740131
C        1.3010002614   -0.4363792925   -0.0124072452
C       -1.1320280411   -0.9764586969    0.3023235467
C        0.9822123807    1.0407815283    0.2369253702
C       -1.4174658312    0.5102760987    0.5374867258
N       -0.4063923041    1.3168197263   -0.1485420159
O       -1.8905718692    2.9735325884   -0.5762264180
H        2.6693384174    5.0903688858   -4.0214570295
H        2.5923102800    2.6084571073   -4.0500177549
H        1.1310623827    6.3518779513   -2.5329490551
H        1.0159824707    1.3975034443   -2.5889797051
H       -0.4447632976    5.1373663451   -1.0621898679
H        0.4039114890   -1.1827396657    1.8091736999
H        0.5031658716   -2.3841625408    0.5109442307
H        1.2494656782   -0.6436336971   -1.0860851806
H        2.3177965682   -0.6575984314    0.3267040647
H       -1.8519331904   -1.5835155576    0.8600291669
H       -1.2566010384   -1.1999770993   -0.7623638510
H        1.7108204045    1.6659621863   -0.2832645152
H        1.0997532726    1.2576895252    1.3041191584
H       -2.4249781540    0.7353966999    0.1707974636
H       -1.3969379722    0.7316912978    1.6097617144
29   

C        2.0122943853    4.5398059063   -3.3431358953
C        1.9030990110    3.1509376471   -3.4467504465
C        1.1950733487    5.2324741669   -2.4471221526
C        0.9933970629    2.4570590410   -2.6399486660
C        0.2865897796    4.5326703868   -1.6455066063
C        0.2081405226    3.1291489630   -1.6930707911
C       -0.8442122980    2.4050396348   -0.8950834800
C        0.2922215389   -1.2774339195    0.7634042394
C        1.2729544867   -0.3898238306   -0.0153032176
C       -1.1511453753   -0.9188143893    0.3851227334
C        0.9685578380    1.0897125787    0.2353922154
C       -1.4243391696    0.5697770832    0.6266529449
N       -0.4330125161    1.3659064177   -0.0996549513
O       -1.9730409110    2.8693388636   -0.7875315069
H        2.7153519849    5.0801494651   -3.9672404019
H        2.5156917297    2.6119867692   -4.1607460165
H        1.2558018959    6.3128214419   -2.3782456741
H        0.8962882793    1.3826893217   -2.7520845751
H       -0.3664103145    5.0769067584   -0.9706048826
H        0.4355228299   -1.1257213038    1.8386482956
H        0.4857808165   -2.3319444221    0.5421022821
H        1.1848254895   -0.6017956296   -1.0856844205
H        2.2999220491   -0.6128325112    0.2904286026
H       -1.8531458008   -1.5229934827    0.9681000224
H       -1.3126999029   -1.1444038311   -0.6742534066
H        1.6796272885    1.7060830604   -0.3189035055
H        1.1274379298    1.3166511633    1.2950761800
H       -2.4451843592    0.7956086126    0.3000933448
H       -1.3630295415    0.7951637499    1.6963703400
29   

C        2.0151816073    4.5181404547   -3.2926527077
C        1.8327095875    3.1495946460   -3.5096024499
C        1.2542151412    5.1731602069   -2.3209408960
C        0.9046654996    2.4360098669   -2.7418843754
C        0.3266479505    4.4548421811   -1.5583126673
C        0.1739387177    3.0681984938   -1.7274923633
C       -0.8892720635    2.3177926723   -0.9654632325
C        0.2948711268   -1.2252650162    0.8092378752
C        1.2563051697   -0.3264178055    0.0188797076
C       -1.1588001590   -0.8737252214    0.4623134384
C        0.9456722067    1.1499971399    0.2796855383
C       -1.4360089862    0.6124038811    0.7170544324
N       -0.4638988048    1.4114957359   -0.0312514368
O       -2.0553180110    2.6908269575   -0.9989894487
H        2.7325853729    5.0733652554   -3.8866519761
H        2.4033579546    2.6428295350   -4.2797262641
H        1.3738373479    6.2392043576   -2.1634278912
H        0.7516572827    1.3794140417   -2.9332102749
H       -0.2831851945    4.9693732421   -0.8228316986
H        0.4580461826   -1.0801644564    1.8824948438
H        0.4910160884   -2.2769411108    0.5768785463
H        1.1516642707   -0.5337822212   -1.0510080656
H        2.2900622334   -0.5431605194    0.3056709110
H       -1.8446045926   -1.4856526583    1.0562912126
H       -1.3408365541   -1.0950525487   -0.5947329222
H        1.6401653573    1.7714840224   -0.2908332152
H        1.1229942798    1.3793522649    1.3358554310
H       -2.4665328503    0.8355937718    0.4211714694
H       -1.3483421679    0.8345377534    1.7855094815
29   

C        2.0427253713    4.4546459889   -3.1676438087
C        1.7347470136    3.1462912732   -3.5529024863
C        1.3833943062    5.0322562214   -2.0785644428
C        0.7716494046    2.4161648933   -2.8466074454
C        0.4216418474    4.2991375477   -1.3743447868
C        0.1149901674    2.9794732965   -1.7455068607
C       -0.9363997098    2.1890865916   -1.0064844303
C        0.3790346723   -1.1684637297    0.9013572156
C        1.3104712716   -0.2066824931    0.1482778241
C       -1.0828169237   -0.9024514672    0.5132066913
C        0.9046505829    1.2488554011    0.4029322557
C       -1.4503336983    0.5641472926    0.7620829552
N       -0.5057580655    1.4164723704    0.0385988742
O       -2.1184577767    2.2832525600   -1.3102923040
H        2.7848201587    5.0230001947   -3.7172537247
H        2.2367167668    2.6993330785   -4.4036760506
H        1.6111153766    6.0504497605   -1.7835573400
H        0.5265824645    1.4058243840   -3.1562799797
H       -0.0987265920    4.7531139862   -0.5377475422
H        0.5004576053   -1.0231286793    1.9800322924
H        0.6443279381   -2.2047575044    0.6684363175
H        1.2528143737   -0.4131000625   -0.9256105041
H        2.3456106650   -0.3642581385    0.4666359603
H       -1.7483755239   -1.5542713709    1.0874904119
H       -1.2229167733   -1.1304353605   -0.5488421116
H        1.5772471292    1.9112757573   -0.1483765212
H        1.0314828239    1.4871734668    1.4642234130
H       -2.4852139603    0.7350444897    0.4473763332
H       -1.3988644942    0.7879961938    1.8325544090
29   

C        2.1301475428    4.3977073222   -3.1088145340
C        1.6903996167    3.1838710019   -3.6454952789
C        1.5828053157    4.8675826178   -1.9113661351
C        0.6971699379    2.4466717833   -2.9903364219
C        0.5927157589    4.1263933354   -1.2566270606
C        0.1238952267    2.9175151631   -1.8028996571
C       -0.9153942193    2.0836017344   -1.0971213059
C        0.4476689093   -1.1036028560    0.9735717400
C        1.3675958997   -0.0962916526    0.2665824645
C       -1.0028823230   -0.9142782314    0.5076261730
C        0.8773909109    1.3405626105    0.4858277593
C       -1.4493542434    0.5337285584    0.7265098106
N       -0.5168262311    1.4292583557    0.0394896749
O       -1.9808514187    1.8267893992   -1.6437521272
H        2.8930551892    4.9734653170   -3.6209400973
H        2.1145582211    2.8146645546   -4.5724978540
H        1.9219263561    5.8083722227   -1.4924238306
H        0.3546667956    1.5064572840   -3.4101647811
H        0.1703593296    4.4942747851   -0.3277799928
H        0.5039061398   -0.9499073239    2.0563819934
H        0.7769913803   -2.1256133192    0.7600321713
H        1.3779684707   -0.3105618201   -0.8074999342
H        2.3909398883   -0.2008624533    0.6398289208
H       -1.6649968634   -1.5937032940    1.0531893056
H       -1.0779876025   -1.1540155795   -0.5584908105
H        1.5476046599    2.0250106202   -0.0394167272
H        0.9342604782    1.5947547231    1.5493513850
H       -2.4769948506    0.6585223359    0.3687605016
H       -1.4558250209    0.7654774592    1.7965458478
29   

C        1.8204268603    4.3762591635   -3.2503721529
C        0.5050358484    4.5403749763   -2.8064063107
C        2.7058006091    3.5778271246   -2.5208668330
C        0.0784906654    3.9138730771   -1.6296048420
C        2.2758643917    2.9494687387   -1.3468076746
C        0.9593508783    3.1269401888   -0.8775414477
C        0.4508480617    2.4438189795    0.3644946993
C       -1.2120679107   -1.1871484692    0.0570523256
C       -0.6459309526   -0.4089975373   -1.1396617433
C       -1.3151423149   -0.2686895455    1.2822735885
C        0.7011588136    0.2359436301   -0.7899052583
C        0.0451156278    0.3636363686    1.5898298995
N        0.5268349420    1.0730192780    0.4028019599
O       -0.2023293515    3.0663001012    1.1936334770
H        2.1529252613    4.8686235358   -4.1574604238
H       -0.1855395799    5.1572556272   -3.3704278008
H        3.7269640879    3.4496196315   -2.8620062229
H       -0.9424254499    4.0470350481   -1.2859085883
H        2.9685176075    2.3339096552   -0.7830317750
H       -0.5521776457   -2.0297537387    0.2888029231
H       -2.1995580535   -1.5893046170   -0.1914374930
H       -1.3539775981    0.3766442229   -1.4246763663
H       -0.5256443002   -1.0788921819   -1.9965796899
H       -1.6662346772   -0.8364088624    2.1494291461
H       -2.0421434890    0.5260733869    1.0828335277
H        1.0524712342    0.7884664560   -1.6634449132
H        1.4443620239   -0.5409858591   -0.5825992992
H       -0.0467457933    1.0322019618    2.4526943412
H        0.7644371695   -0.4137763750    1.8670454574
29   

C        1.8453697217    4.4678468443   -3.2055713382
C        0.5573024551    4.7220275001   -2.7264612346
C        2.6595841504    3.5402762743   -2.5504772317
C        0.0856306654    4.0526737700   -1.5912064941
C        2.1851495117    2.8695409624   -1.4177877275
C        0.8909203757    3.1245347830   -0.9182011646
C        0.3294387656    2.4302020805    0.2927165648
C       -1.1522793865   -1.2576861381    0.1716823634
C       -0.6405831876   -0.5051796370   -1.0640505874
C       -1.2585084111   -0.2973895907    1.3634158889
C        0.6906854514    0.1978651520   -0.7712931110
C        0.0877538554    0.3881089029    1.6166486451
N        0.5249391812    1.0711664282    0.3972186980
O       -0.4057732968    3.0270763458    1.0712775334
H        2.2129317957    4.9926456658   -4.0803619767
H       -0.0771043775    5.4426296912   -3.2302650872
H        3.6618822648    3.3462006831   -2.9155871681
H       -0.9134527101    4.2610664089   -1.2212076498
H        2.8311762600    2.1628326889   -0.9082428228
H       -0.4593408169   -2.0690012817    0.4179469372
H       -2.1311408282   -1.7004283905   -0.0392331075
H       -1.3818518167    0.2452706395   -1.3593149738
H       -0.5170417364   -1.2006681991   -1.8999097466
H       -1.5734320147   -0.8423859796    2.2585099026
H       -2.0148356948    0.4660492331    1.1505823161
H        0.9905879374    0.7328771240   -1.6740159807
H        1.4680297364   -0.5445432789   -0.5625428371
H       -0.0071137945    1.0862270005    2.4555894438
H        0.8367543423   -0.3557941908    1.9067228569
29   

C        1.9016566987    4.5540220187   -3.1595314752
C        0.6441571182    4.8812157682   -2.6463759979
C        2.6315950412    3.5073628749   -2.5914842527
C        0.1165237223    4.1620165922   -1.5677071882
C        2.1019535081    2.7870614308   -1.5150883599
C        0.8294446242    3.1020724471   -0.9897505518
C        0.2101696836    2.3915637721    0.1829030555
C       -1.1036662707   -1.3335356677    0.2779691434
C       -0.6468622751   -0.6200882211   -1.0005757881
C       -1.2139084962   -0.3236853729    1.4270034597
C        0.6667331353    0.1375150809   -0.7727061545
C        0.1156184609    0.4139985408    1.6183494062
N        0.5103726477    1.0558023403    0.3624348831
O       -0.5824573409    2.9681848786    0.9200085246
H        2.3128198234    5.1167813111   -3.9901979010
H        0.0770302641    5.6978864155   -3.0787841264
H        3.6143079903    3.2609407575   -2.9776323004
H       -0.8572839324    4.4341015798   -1.1722892003
H        2.6980680568    1.9995769660   -1.0675344609
H       -0.3787443512   -2.1104025363    0.5423913020
H       -2.0721609150   -1.8158932239    0.1103987961
H       -1.4195201138    0.0926906019   -1.3084893050
H       -0.5206146735   -1.3465363325   -1.8093033369
H       -1.4926060066   -0.8363925615    2.3526025836
H       -1.9988411248    0.4052578600    1.1971823848
H        0.9170901172    0.6468819668   -1.7050771184
H        1.4753799941   -0.5694722523   -0.5597655690
H        0.0152796873    1.1482556193    2.4252723608
H        0.8929026231   -0.2924230560    1.9269570695
29   

C        1.9645562459    4.6601473157   -3.1139296431
C        0.7425211457    5.0445565245   -2.5585183387
C        2.6036926241    3.5085717126   -2.6507176796
C        0.1566419748    4.2747674624   -1.5470713490
C        2.0166755109    2.7377485287   -1.6410130188
C        0.7680906892    3.0993706704   -1.0844893482
C        0.0934719097    2.3673443462    0.0458908221
C       -1.0506087136   -1.3820888406    0.3884424831
C       -0.6508794694   -0.7219170328   -0.9359965465
C       -1.1743585145   -0.3145437983    1.4819890556
C        0.6381733361    0.0936441529   -0.7816488098
C        0.1311638532    0.4797351914    1.6038700191
N        0.4849115239    1.0651225231    0.3085310300
O       -0.7448573801    2.9265457595    0.7455399264
H        2.4211503151    5.2613224578   -3.8923000987
H        0.2483303284    5.9453841155   -2.9047149692
H        3.5642389036    3.2206869540   -3.0630568782
H       -0.7870754232    4.5992394656   -1.1194790331
H        2.5635552976    1.8796045098   -1.2685243520
H       -0.2906979087   -2.1158252452    0.6766513592
H       -2.0035276314   -1.9081112951    0.2700439042
H       -1.4567795289   -0.0548075326   -1.2606055781
H       -0.5166745086   -1.4847380169   -1.7092130655
H       -1.4162049683   -0.7842417177    2.4401531781
H       -1.9902297748    0.3716727790    1.2293769784
H        0.8378161219    0.5683552613   -1.7445725386
H        1.4795636954   -0.5715611200   -0.5609222252
H        0.0177071609    1.2556339057    2.3690385997
H        0.9383637248   -0.1800409490    1.9377462361
29   

C        2.0258350486    4.7715413269   -3.0485874253
C        0.8440587968    5.1940523922   -2.4382151003
C        2.5717265973    3.5317159398   -2.7132318664
C        0.2017666280    4.3728056510   -1.5046811491
C        1.9295455056    2.7091938197   -1.7805790101
C        0.7089210699    3.1030459687   -1.1822024210
C       -0.0175743968    2.3397513217   -0.1006412949
C       -0.9953033965   -1.4167321896    0.5019980119
C       -0.6420048007   -0.8227747255   -0.8653810451
C       -1.1499344739   -0.2882623800    1.5276636352
C        0.6146205301    0.0513843805   -0.7827306949
C        0.1243537770    0.5628423475    1.5830746269
N        0.4487764766    1.0798805817    0.2510465536
O       -0.9005724262    2.8792476551    0.5590197689
H        2.5260307621    5.4115376076   -3.7668898832
H        0.4250461588    6.1643281001   -2.6802238886
H        3.5062682392    3.2145472791   -3.1622154891
H       -0.7071477055    4.7349879672   -1.0342425449
H        2.4260447975    1.7884461062   -1.5024918736
H       -0.2014984656   -2.0991997397    0.8228828824
H       -1.9269532986   -1.9874655311    0.4306229554
H       -1.4792394377   -0.2089870182   -1.2149493140
H       -0.4885013820   -1.6245010429   -1.5944158948
H       -1.3632849044   -0.7055221611    2.5163406295
H       -1.9954028379    0.3477123375    1.2428837999
H        0.7694389615    0.4819545088   -1.7746526695
H        1.4878955629   -0.5656573411   -0.5463532257
H       -0.0140817727    1.3815515607    2.2978624812
H        0.9592093919   -0.0421316980    1.9508796007
