40

C      3.50609   -1.09286    3.09313
C      3.25558    0.24678    2.78224
C      2.87596   -2.09804    2.35000
C      2.38539    0.57091    1.73568
C      2.00583   -1.77149    1.30640
C     -5.27608   -1.44270    0.25148
C     -5.14146    0.79464    1.24978
C     -4.08885   -1.21485   -0.41154
C     -3.95458    1.01723    0.58457
C      1.75160   -0.42803    0.98112
C     -5.88525   -0.45436    1.13358
C     -3.41126    0.02006   -0.26198
C      0.80580   -1.88912   -1.97567
C      0.24647   -3.19892   -3.84780
C      1.24735   -0.50613   -1.54386
C     -0.64468   -0.39257    0.23200
C      0.80330   -0.02772   -0.13914
O     -6.96973   -0.66194    1.74641
O      0.51305   -2.82474   -1.24988
O     -1.70480   -0.61974   -2.18567
O     -1.53687    1.69636   -1.11622
O      0.81958   -1.98856   -3.32422
S     -1.85407    0.25009   -0.98765
H      4.18021   -1.35113    3.90672
H      3.73372    1.03946    3.35356
H      3.05951   -3.14378    2.58726
H      2.19102    1.61590    1.50238
H      1.51853   -2.55451    0.73482
H     -5.80503   -2.38555    0.12713
H     -5.56899    1.56553    1.88793
H     -3.66487   -1.97076   -1.06909
H     -3.43043    1.96553    0.68333
H      0.30113   -3.10167   -4.93296
H     -0.79291   -3.28180   -3.52233
H      0.80760   -4.07496   -3.51047
H      0.87122    0.18797   -2.29675
H      2.34246   -0.47908   -1.60245
H     -0.80645   -1.46903    0.29157
H     -0.91200    0.06555    1.18727
H      0.82904    1.06432   -0.19829
