33

C     -1.04358   -2.78634    1.27785
C     -1.09907   -1.42641    0.95101
C      0.68886   -1.78387   -0.64204
C     -0.13529   -3.66188    0.66993
C      0.74145   -3.13172   -0.31277
C     -0.22495   -0.91948   -0.01591
C      1.07001   -5.79186    0.68204
C     -0.03350   -5.09607    1.02316
C     -1.46047   -7.13417    1.37801
C      1.68235   -4.07524   -1.02682
C      2.20699   -5.15631   -0.07793
C     -0.86662   -5.64891    3.36065
C     -1.09203    1.29982    0.18365
C     -1.15836   -5.72181    1.84907
O     -2.32410   -7.43015    0.57621
O     -0.66224   -8.08097    1.95118
O     -0.18066    0.38775   -0.42043
H     -1.72822   -3.14802    2.03837
H     -1.81658   -0.78862    1.45452
H      1.35338   -1.37133   -1.39701
H      1.17466   -6.82894    0.98775
H      1.12911   -4.56354   -1.84190
H      2.50727   -3.52141   -1.48543
H      2.92080   -4.71595    0.63556
H      2.75984   -5.91606   -0.64031
H      0.02781   -6.22457    3.60712
H     -1.70514   -6.04208    3.94531
H     -0.69540   -4.61065    3.65805
H     -0.89317    2.26941   -0.27499
H     -0.92899    1.36989    1.26636
H     -2.13286    1.01261   -0.01074
H     -2.08189   -5.18265    1.62989
H     -0.94133   -8.93298    1.56331
