24

C      1.91354    0.61304    1.03622
C      1.01178   -0.11185    0.25169
C      2.83346   -0.07021    1.82496
C      1.04504   -1.50761    0.26847
C      2.89472   -1.48148    1.86561
C      1.97158   -2.18976    1.06210
C      6.26722   -5.38883    5.12702
C      5.20854   -4.91092    4.27901
C      3.91780   -2.04472    2.75053
N      6.02357   -6.63317    5.44231
N      4.33999   -5.87059    4.08443
N      4.14148   -3.29835    2.91971
N      7.33060   -4.62265    5.61087
N      5.17200   -3.63087    3.75165
O      4.83517   -6.94938    4.80714
Br     1.89860   -4.09772    0.99088
H      1.89936    1.69917    1.03356
H      0.28356    0.40037   -0.37104
H      3.53484    0.49366    2.43599
H      0.34727   -2.07732   -0.33641
H      4.51623   -1.29437    3.28857
H      7.88241   -4.21351    4.86001
H      7.93354   -5.17072    6.21938
H      5.55601   -2.90730    4.36511
