15

C      1.40654    0.09102    1.35457
C      0.43077   -0.63974    0.66692
C      1.55277   -0.04538    2.73833
C     -0.35497   -1.53675    1.40147
C      0.69096   -0.96166    3.34920
C     -1.62817   -2.31898   -0.99964
N     -0.20924   -1.67805    2.73008
F     -0.44961   -2.62273   -1.58820
F     -1.91060   -1.03763   -1.33185
F     -2.57832   -3.10529   -1.53735
S     -1.64675   -2.62377    0.79570
I      0.39154   -0.73635    5.65281
H      2.03920    0.78724    0.81011
H      0.29002   -0.49385   -0.39635
H      2.29894    0.50687    3.29707
