44

C     -1.63874    4.55116   -2.18458
C     -1.98868    3.31339   -0.11872
C     -1.93080    3.33175   -1.49928
C     -1.44808    5.71350   -1.48529
C     -1.79660    4.52944    0.65480
C      1.68129   -2.08332    0.86403
C     -2.40363    2.06368    0.61119
C      0.71905    0.97788    2.30065
C     -1.04058   -0.79314    2.04791
C     -0.22712    2.11385    1.85941
C     -1.95127    0.41331    2.35964
C      0.49070   -0.25230    0.06079
C      0.35865   -0.32726    1.59914
C     -2.19091    2.09997   -2.33149
C     -1.15595    7.04786   -2.10908
C      1.43904   -1.93336   -1.58513
N     -1.52897    5.67082   -0.12157
N      1.05255   -1.55316   -0.24116
N     -1.55918    1.57666    1.56571
O     -1.85091    4.63971    1.88533
O      2.42071   -3.04423    0.91049
O     -3.46753    1.50429    0.31684
O      1.33226   -1.34396    1.96596
H     -1.57559    4.56558   -3.26702
H      1.75487    1.25060    2.07927
H      0.65515    0.81715    3.38130
H     -0.92072   -1.40628    2.94565
H     -1.48297   -1.42824    1.27467
H     -0.29107    2.88701    2.63098
H      0.15796    2.58930    0.95466
H     -2.99484    0.19368    2.14244
H     -1.87450    0.68528    3.41906
H     -0.47764   -0.10518   -0.42415
H      1.16515    0.55863   -0.25719
H     -1.68053    2.16862   -3.29637
H     -3.26577    2.00158   -2.51415
H     -1.87875    1.18486   -1.82625
H     -1.93939    7.77369   -1.86269
H     -1.10114    6.96013   -3.19523
H     -0.20257    7.45026   -1.74786
H      0.55727   -1.97929   -2.23242
H      1.90478   -2.91872   -1.54205
H      2.15655   -1.21980   -2.01492
H     -1.40434    6.51840    0.42481
