20

C     -1.16176    1.49016    1.70824
C     -1.46886    2.38007    2.73998
C      0.66932    2.32843    3.53752
C      0.13716    0.98054    1.57705
C      1.05626    1.43009    2.53961
C     -0.53167   -0.51946   -0.46725
C     -0.66922   -1.76261    0.44353
C      0.55558   -0.02402    0.52272
N     -0.57682    2.80218    3.64533
N      0.65372   -1.42889    1.04151
Cl     2.72103    0.86725    2.52764
H     -1.94071    1.20459    1.00979
H     -2.47905    2.77318    2.84054
H      1.39707    2.67119    4.27028
H     -0.09195   -0.76351   -1.43601
H     -1.41531    0.09873   -0.62761
H     -1.51462   -1.68037    1.14064
H     -0.70062   -2.74184   -0.04429
H      1.49011    0.31274    0.06375
H      0.70584   -1.50208    2.05615
