18

C      1.73186   -0.48137   -0.04261
C      0.69928   -0.12735    0.82713
C      2.80382   -1.73952    1.72999
C      1.76859   -1.37998    2.58549
C      2.78119   -1.29852    0.40055
C      0.70879   -0.57844    2.14977
C      3.57544   -3.29767   -1.46767
C      2.24170   -3.88202   -1.05792
O      4.32119   -3.80330   -2.27671
F      1.79392   -1.81525    3.86026
S      4.11999   -1.73124   -0.70688
Cl    -0.56975   -0.14854    3.24952
H      1.72171   -0.12420   -1.06759
H     -0.11705    0.50215    0.48717
H      3.61114   -2.35905    2.10775
H      2.22632   -4.09534    0.01436
H      2.08563   -4.80301   -1.62184
H      1.43025   -3.17783   -1.26005
