28   

C       -0.9864301166    0.3276404514    0.5217255491
C       -2.0409332772   -0.5895522117    0.6208310806
C       -1.7878433866    1.4789604022    2.5031845006
C       -3.9210815156    0.3917739006    3.5397769427
C       -2.8339443494    0.5554035150    2.5899832555
C       -0.8416024177    1.3739987484    1.4579443403
C       -2.9511023035   -0.4560451743    1.6616708227
C       -4.6570454247   -0.7109892841    3.1426344409
C       -5.7902527125   -1.3931287484    3.7610273493
C        1.2176045209    2.2844756448    2.5629083501
C       -0.2032471070    3.7696739960    1.0968234185
C        0.3123453866    2.3470649970    1.3292562733
N       -4.0551453091   -1.2375636235    1.9771121803
O       -6.1773432009   -2.5078616311    3.4361591648
O       -6.3724319868   -0.7090113251    4.7738570796
H       -0.2745526224    0.2218148256   -0.2887734919
H       -2.1447441419   -1.3924843459   -0.0980154014
H       -1.7103708859    2.2651780745    3.2438488298
H       -4.1130630968    0.9999326167    4.4155262394
H        0.6734034207    2.5783882445    3.4654245336
H        2.0726790386    2.9562433147    2.4385675551
H        1.5962976205    1.2663581420    2.6984293600
H       -0.8001170346    4.1145144752    1.9465123709
H       -0.8254263273    3.7997453800    0.1966669682
H        0.6363184077    4.4580736173    0.9587482440
H        0.9162813231    2.0657637805    0.4599785753
H       -4.3670052165   -2.0780267123    1.4945209241
H       -7.0858095611   -1.2860249897    5.0903282158
28   

C       -0.7191889013    0.1396852083    0.7973095520
C       -1.7288347617   -0.8220878628    0.9347568832
C       -1.8743697265    1.5911755467    2.3631892027
C       -4.0728014776    0.5522982142    3.3072384975
C       -2.8724267923    0.6206340965    2.4923667400
C       -0.7737940017    1.3587291640    1.5067736074
C       -2.7943241475   -0.5599104248    1.7866857439
C       -4.6811426212   -0.6639054536    3.0512502774
C       -5.8041141019   -1.3321243718    3.7081728754
C        1.0248090928    2.6519736745    2.6881130186
C       -0.1997042451    3.6673088947    0.7277081906
C        0.3382445983    2.3751301884    1.3471039495
N       -3.8866243538   -1.3556469767    2.1081894692
O       -5.9340257219   -2.5466154377    3.7764410529
O       -6.6703825439   -0.4929075646    4.3225476690
H        0.1148321084   -0.0670283528    0.1365845835
H       -1.6780535267   -1.7580879884    0.3929794186
H       -1.9509685363    2.5107379434    2.9299750563
H       -4.4115947533    1.2917204804    4.0227861950
H        0.3239162053    3.0859004718    3.4074562407
H        1.8561630662    3.3502638074    2.5496911713
H        1.4227507715    1.7211802581    3.1047624289
H       -0.9495216442    4.1301470348    1.3763746772
H       -0.6598161269    3.4537187486   -0.2423246811
H        0.6158691641    4.3805502523    0.5729957147
H        1.0935891450    1.9681346196    0.6664262072
H       -4.0548720943   -2.3101669543    1.7973796756
H       -7.3325047468   -1.0709990948    4.7340754722
28   

C       -0.7446478318    0.1688264420    0.7513380043
C       -1.7605355245   -0.7880602889    0.8772761564
C       -1.8844603675    1.6035333549    2.3434997827
C       -4.0776410552    0.5582784488    3.2905572827
C       -2.8882236789    0.6374904500    2.4614863123
C       -0.7881772979    1.3768535497    1.4801649599
C       -2.8211296334   -0.5322207624    1.7373426002
C       -4.6936213610   -0.6508097569    3.0216005853
C       -5.7700641126   -1.3410629969    3.7408592179
C        1.0184156128    2.6416289780    2.6820876793
C       -0.1936588334    3.6894136832    0.7311623072
C        0.3327190569    2.3859259968    1.3362161931
N       -3.9123155951   -1.3301796127    2.0580595326
O       -5.7641513957   -2.5341678982    4.0049147043
O       -6.7434717686   -0.5210689728    4.2005104940
H        0.0865212984   -0.0338972823    0.0857987608
H       -1.7166040811   -1.7167813878    0.3225551327
H       -1.9516061151    2.5134670453    2.9267745567
H       -4.3950389248    1.2790291583    4.0342882484
H        0.3197541465    3.0733804116    3.4048868794
H        1.8559376510    3.3344451299    2.5536111041
H        1.4076447883    1.7029049335    3.0890772245
H       -0.9420684485    4.1495733737    1.3833671304
H       -0.6524067231    3.4909872016   -0.2427172553
H        0.6276362971    4.3984029413    0.5876070396
H        1.0867073634    1.9810408427    0.6527825289
H       -4.0698425127   -2.2867563107    1.7493041224
H       -7.3531921824   -1.1000022874    4.6852069607
28   

C       -0.7784993932    0.1823210271    0.7134481067
C       -1.8012011860   -0.7682044102    0.8332056332
C       -1.8947887473    1.6027746321    2.3345641164
C       -4.0827710294    0.5567259811    3.2907124850
C       -2.9049564837    0.6427401042    2.4465589384
C       -0.8067729293    1.3799742284    1.4599443704
C       -2.8531952869   -0.5166566501    1.7051686769
C       -4.7088442116   -0.6439031980    3.0121550669
C       -5.7521873969   -1.3441299480    3.7827636174
C        1.0149034663    2.6165034630    2.6703071014
C       -0.1953976122    3.6952340676    0.7353312877
C        0.3223810414    2.3810086817    1.3240818408
N       -3.9450213955   -1.3135246036    2.0273412391
O       -5.6274556102   -2.4655034200    4.2472446862
O       -6.8406134380   -0.5867205635    4.0502678326
H        0.0466321199   -0.0177748141    0.0396515197
H       -1.7677759838   -1.6897609744    0.2659787244
H       -1.9495238107    2.5038924444    2.9326229032
H       -4.3785120086    1.2627171375    4.0570348671
H        0.3226873930    3.0466520600    3.4002154240
H        1.8578897993    3.3034868730    2.5462334924
H        1.3975558258    1.6702826559    3.0660193782
H       -0.9382931044    4.1536817353    1.3950182881
H       -0.6585855419    3.5112951422   -0.2392832082
H        0.6310208055    4.3993356724    0.5972549437
H        1.0708475607    1.9774667561    0.6338198143
H       -4.1026195953   -2.2667102894    1.7098838270
H       -7.4119172549   -1.1492059290    4.5970229054
28   

C       -0.7908541993    0.1986826877    0.6994291637
C       -1.8157962078   -0.7490456984    0.8221635296
C       -1.8781960963    1.6038991723    2.3531319479
C       -4.0580945481    0.5560275521    3.3260618367
C       -2.8907037508    0.6466186758    2.4679671318
C       -0.8037337910    1.3874779237    1.4603293594
C       -2.8543701079   -0.5038120688    1.7119097954
C       -4.6915295561   -0.6365995712    3.0422404410
C       -5.7436563493   -1.3296083416    3.8250237614
C        1.0375586036    2.6073535729    2.6586746204
C       -0.1944527311    3.7071944921    0.7494594284
C        0.3269235916    2.3861507813    1.3194867879
N       -3.9462246015   -1.2990273845    2.0381988392
O       -5.5533278557   -2.3220947437    4.5044438432
O       -6.9415058389   -0.7022748439    3.8115625176
H        0.0237942609    0.0035400541    0.0115637241
H       -1.7941982152   -1.6635828208    0.2431602022
H       -1.9209518376    2.4982035688    2.9622782226
H       -4.3407731765    1.2558946899    4.1027154305
H        0.3563111605    3.0331260016    3.4013459775
H        1.8810636948    3.2928169955    2.5297956208
H        1.4222672906    1.6564296070    3.0408761747
H       -0.9276615479    4.1615052536    1.4227137511
H       -0.6704837269    3.5335534125   -0.2208518642
H        0.6321460405    4.4102857118    0.6073736743
H        1.0652133688    1.9867477224    0.6159822053
H       -4.1178161888   -2.2412786979    1.6977879349
H       -7.5114863369   -1.2319659597    4.3913051749
28   

C       -0.7409153946    0.1692356824    0.8096622981
C       -1.7429450531   -0.7940612576    0.9852905780
C       -1.7922546436    1.5820406197    2.4807075645
C       -3.9463953113    0.5322985146    3.5148979507
C       -2.7843278100    0.6106047136    2.6464396809
C       -0.7479937707    1.3700435934    1.5513260678
C       -2.7529427077   -0.5516270579    1.9078591325
C       -4.5678453863   -0.6674623433    3.2654296198
C       -5.7607136132   -1.2733499419    3.9280683613
C        1.1326185632    2.6252955911    2.6392252329
C       -0.2263203955    3.7030397601    0.8045553310
C        0.3512395689    2.3915456489    1.3430210232
N       -3.8345568049   -1.3468125183    2.2642337551
O       -5.7207123935   -2.0011817551    4.8993623941
O       -6.9343355776   -0.9422551951    3.3438255777
H        0.0486753512   -0.0208054313    0.0917917272
H       -1.7300749412   -1.7143325298    0.4151892667
H       -1.8323442020    2.4887944977    3.0713637021
H       -4.2577464412    1.2717180804    4.2423086112
H        0.4853201715    3.0345606355    3.4205888167
H        1.9528340441    3.3285139111    2.4642126552
H        1.5580449176    1.6817041394    2.9955529384
H       -0.9255042797    4.1466024958    1.5197862658
H       -0.7562335809    3.5203448425   -0.1357283894
H        0.5781377721    4.4200113921    0.6131509183
H        1.0545504011    2.0063922555    0.5970043369
H       -4.0457826994   -2.2676691310    1.8904834685
H       -7.6149758092   -1.3888963872    3.8716875150
28   

C       -0.7091444784    0.0989673459    0.9149780020
C       -1.6958781573   -0.8700037773    1.1400917871
C       -1.7279246154    1.5385113702    2.5831319992
C       -3.8724605688    0.5156319156    3.6605215502
C       -2.7064824995    0.5626544441    2.7957487616
C       -0.7081068313    1.3161685076    1.6295472043
C       -2.6829353900   -0.6164551985    2.0843092802
C       -4.4942707223   -0.6959417128    3.4531348401
C       -5.8127149268   -1.1594621454    3.9537379226
C        1.2090992938    2.5936732425    2.6136308893
C       -0.2484026963    3.6544935122    0.8461499271
C        0.3667014346    2.3490488758    1.3590361507
N       -3.7652981214   -1.3995203491    2.4650278723
O       -6.0629183745   -1.5071615922    5.0908484677
O       -6.7349402847   -1.2824774234    2.9707029670
H        0.0591600249   -0.0972767589    0.1760004919
H       -1.6940355115   -1.7993897146    0.5848341203
H       -1.7656608329    2.4611986675    3.1487704168
H       -4.2172298313    1.3032092356    4.3192787326
H        0.5959955095    2.9960777182    3.4256176340
H        2.0114725539    3.3058385060    2.3971891982
H        1.6620970051    1.6552383144    2.9489163488
H       -0.9117670588    4.0976538452    1.5948985376
H       -0.8256536886    3.4644381488   -0.0643415970
H        0.5397136976    4.3762348852    0.6097654049
H        1.0343237857    1.9680939489    0.5788650858
H       -4.0319197956   -2.2903799150    2.0555739238
H       -7.5319543126   -1.6131060351    3.4147412439
28   

C       -0.7026084364    0.1240962578    0.9331297166
C       -1.6959413174   -0.8326668649    1.1813583038
C       -1.6877710662    1.5932645670    2.5953820677
C       -3.8328451403    0.6090382497    3.7041335985
C       -2.6733342286    0.6298775375    2.8303073067
C       -0.6811915592    1.3495792412    1.6332233495
C       -2.6694477004   -0.5585580027    2.1339361590
C       -4.4701540256   -0.6024412540    3.5213735214
C       -5.7970469325   -1.0163893167    4.0153400257
C        1.2703366755    2.6043375722    2.5743331187
C       -0.2087934331    3.6824364217    0.8357599031
C        0.3995759737    2.3693136154    1.3375254952
N       -3.7574169292   -1.3242952925    2.5344287380
O       -6.1430820753   -1.0740225870    5.1799780831
O       -6.6002800633   -1.4865175492    3.0304703845
H        0.0548207917   -0.0881377024    0.1873845476
H       -1.7100288938   -1.7683118125    0.6368880866
H       -1.7105681860    2.5230721052    3.1500827150
H       -4.1683926484    1.4122810079    4.3488603867
H        0.6783462179    3.0136869794    3.3984694852
H        2.0763460562    3.3071042981    2.3413367874
H        1.7190846546    1.6607123129    2.9006495444
H       -0.8491787012    4.1364096805    1.5978916780
H       -0.8084070011    3.4990796826   -0.0615403297
H        0.5838617576    4.3928424299    0.5809018233
H        1.0457780052    1.9791251589    0.5440072182
H       -4.0564462425   -2.2052911430    2.1250323856
H       -7.4164869910   -1.7541913198    3.4825295857
28   

C       -0.7185395980    0.1453880637    0.9037253812
C       -1.7220245572   -0.8037979062    1.1403044609
C       -1.6883400934    1.6049371400    2.5833895399
C       -3.8410039543    0.6292100642    3.6840221314
C       -2.6838802098    0.6492296663    2.8068737965
C       -0.6843126797    1.3621699862    1.6184167521
C       -2.6927679299   -0.5310200921    2.0960621471
C       -4.4920259588   -0.5742330348    3.4858596909
C       -5.8049862226   -0.9857437453    3.9977311689
C        1.2761931058    2.5902935097    2.5775806787
C       -0.1866722993    3.6965189582    0.8430122723
C        0.4076514420    2.3736487959    1.3357582068
N       -3.7876582823   -1.2907541220    2.4894548165
O       -6.2134288495   -0.8290928908    5.1335999578
O       -6.5195907756   -1.7063875554    3.0979954123
H        0.0369980659   -0.0660234680    0.1558382983
H       -1.7456046003   -1.7329512854    0.5851438862
H       -1.7011334768    2.5279570655    3.1496609497
H       -4.1645072747    1.4240965929    4.3453079577
H        0.6854247641    2.9990394632    3.4028875845
H        2.0898715367    3.2869523833    2.3530275104
H        1.7145377933    1.6397945595    2.8980201343
H       -0.8260063068    4.1495605205    1.6066009011
H       -0.7843842718    3.5263540694   -0.0581451392
H        0.6133930555    4.4018562887    0.5974147466
H        1.0531141057    1.9839579627    0.5414015426
H       -4.0987227855   -2.1664737719    2.0766547568
H       -7.3379601773   -1.9412102731    3.5645921705
28   

C       -0.7403433277    0.1702159574    0.8629815265
C       -1.7560258313   -0.7710048705    1.0783455389
C       -1.7069698753    1.6167232691    2.5558135986
C       -3.8732862278    0.6455670734    3.6338154792
C       -2.7145161942    0.6690202121    2.7584787480
C       -0.6981525701    1.3762696847    1.5952450853
C       -2.7310547561   -0.5010328073    2.0304777568
C       -4.5359977470   -0.5478606947    3.4122954464
C       -5.8264074028   -0.9786581975    3.9521444807
C        1.2661745487    2.5700639932    2.5905808647
C       -0.1656484631    3.7135181297    0.8542511046
C        0.4085129468    2.3782527856    1.3370402767
N       -3.8337498184   -1.2567752455    2.4094789592
O       -6.2991767223   -0.6495571103    5.0249264598
O       -6.4499838403   -1.8964074838    3.1706958210
H        0.0191197536   -0.0394113114    0.1185795562
H       -1.7847880765   -1.6925716043    0.5109142829
H       -1.7130860223    2.5310415352    3.1361595837
H       -4.1854098913    1.4266877036    4.3168182254
H        0.6715114836    2.9760155392    3.4144632589
H        2.0902138249    3.2597721442    2.3829664798
H        1.6901136658    1.6108402092    2.9043438393
H       -0.8083555312    4.1641371668    1.6164516031
H       -0.7552779302    3.5609661488   -0.0553404826
H        0.6448022725    4.4128129464    0.6260709237
H        1.0581490177    1.9907765048    0.5450083109
H       -4.1430886578   -2.1354252707    2.0008038304
H       -7.2667932179   -2.1119984334    3.6494177890
28   

C       -0.7424710709    0.2164507358    0.8118379398
C       -1.7697005367   -0.7160285833    1.0097465595
C       -1.6911116886    1.6429870918    2.5316589190
C       -3.8616785239    0.6727133667    3.6019861071
C       -2.7097387118    0.7037894931    2.7175976050
C       -0.6855630069    1.4081555103    1.5662885901
C       -2.7413312619   -0.4518969876    1.9669435723
C       -4.5400916984   -0.5068694271    3.3555514157
C       -5.7976079818   -0.9650496595    3.9413779777
C        1.2833792085    2.5726327497    2.5907565732
C       -0.1223271699    3.7447703010    0.8522114644
C        0.4346228154    2.4000099289    1.3281676269
N       -3.8492570192   -1.2042869051    2.3372984292
O       -6.3343521811   -0.5044209199    4.9328328499
O       -6.3297484610   -2.0337474884    3.2951001872
H        0.0149216940    0.0109378761    0.0641896645
H       -1.8089689081   -1.6271700041    0.4263306464
H       -1.6851012778    2.5456400938    3.1300022666
H       -4.1531786201    1.4343717902    4.3155368565
H        0.6865204913    2.9792775052    3.4126788583
H        2.1168219860    3.2546294983    2.3955364142
H        1.6939355503    1.6064320999    2.9008726873
H       -0.7685493483    4.1938250134    1.6123988997
H       -0.7044421369    3.6058812172   -0.0643866597
H        0.6966403636    4.4386369355    0.6383692521
H        1.0875571027    2.0126963693    0.5387754958
H       -4.1548090434   -2.0879524102    1.9361817587
H       -7.1404136411   -2.2396205722    3.7884544879
28   

C       -0.7819190937    0.2344676053    0.7772703472
C       -1.8239802126   -0.6845614133    0.9601146409
C       -1.7179913161    1.6568754694    2.5073607645
C       -3.9008748495    0.7017331899    3.5659915564
C       -2.7512417499    0.7309735598    2.6785079617
C       -0.7109336767    1.4170243013    1.5448249620
C       -2.7965062569   -0.4160178431    1.9151795400
C       -4.5963085683   -0.4641253137    3.3025064698
C       -5.8215452716   -0.9477713425    3.9326791651
C        1.2683499404    2.5402066444    2.5962839211
C       -0.1047018678    3.7504415558    0.8577558640
C        0.4270732190    2.3927633467    1.3253659493
N       -3.9126726981   -1.1597563388    2.2783025215
O       -6.4421167964   -0.3834280649    4.8158495214
O       -6.2440795652   -2.1388345899    3.4365057767
H       -0.0231857039    0.0249660294    0.0320934840
H       -1.8728187783   -1.5897166661    0.3681661451
H       -1.7004001958    2.5519054122    3.1168279620
H       -4.1728552857    1.4494343825    4.3017116907
H        0.6716409040    2.9489504530    3.4172684413
H        2.1141393524    3.2104904722    2.4139889232
H        1.6609888072    1.5648013341    2.9007554548
H       -0.7502608331    4.2022145591    1.6169038000
H       -0.6811957512    3.6292563664   -0.0648791818
H        0.7267775458    4.4333425116    0.6573573569
H        1.0802635121    2.0023522827    0.5377149078
H       -4.2107457096   -2.0525584772    1.8918954102
H       -7.0526760032   -2.3389843814    3.9356193044
28   

C       -0.7994860469    0.2664481667    0.7399869898
C       -1.8510721543   -0.6446461273    0.9071993668
C       -1.7286485233    1.6759069262    2.4843468071
C       -3.9174267811    0.7216335631    3.5317246204
C       -2.7712554898    0.7577627894    2.6400638745
C       -0.7199114480    1.4382650373    1.5229990589
C       -2.8246560425   -0.3787877044    1.8619305429
C       -4.6235517380   -0.4336223820    3.2503700097
C       -5.8116275527   -0.9527619262    3.9237487212
C        1.2641648637    2.5281348592    2.6014420720
C       -0.0832863243    3.7718179197    0.8664828658
C        0.4304719561    2.4036075828    1.3229362953
N       -3.9442386115   -1.1209381479    2.2175998315
O       -6.5321557814   -0.3307616817    4.6834922571
O       -6.1005622449   -2.2349958553    3.5841065935
H       -0.0392461690    0.0584265422   -0.0040691892
H       -1.9052777885   -1.5426813918    0.3049625146
H       -1.7035772698    2.5618340607    3.1067114372
H       -4.1728502609    1.4516281902    4.2907484853
H        0.6663114227    2.9349625947    3.4225370171
H        2.1187046125    3.1907432917    2.4323282594
H        1.6437586474    1.5452634616    2.8983778373
H       -0.7297902040    4.2218838662    1.6258467748
H       -0.6540743757    3.6668013961   -0.0616585064
H        0.7568705544    4.4479480678    0.6798245030
H        1.0852753413    2.0146178574    0.5359201139
H       -4.2287024271   -2.0231242435    1.8430841203
H       -6.9065111423   -2.4450025434    4.0834099303
28   

C       -0.8611262207    0.2760558063    0.7108639018
C       -1.9256372926   -0.6223054471    0.8646560454
C       -1.7672088334    1.6694185766    2.4800403652
C       -3.9605413343    0.7219725115    3.5239744369
C       -2.8222702886    0.7634211499    2.6227898237
C       -0.7635483183    1.4334935718    1.5129686859
C       -2.8938769353   -0.3582935866    1.8253491513
C       -4.6860709524   -0.4163111872    3.2232415021
C       -5.8386814728   -0.9680592267    3.9368512601
C        1.2287625097    2.4897058547    2.6133009501
C       -0.0916871417    3.7614811856    0.8779493206
C        0.4016747093    2.3840786550    1.3285992004
N       -4.0195387959   -1.0938758563    2.1753895990
O       -6.6632245739   -0.3301812168    4.5660720401
O       -5.9841459471   -2.3054907354    3.7582716225
H       -0.1045286632    0.0689449158   -0.0371516519
H       -1.9928774552   -1.5100970196    0.2487050532
H       -1.7275864122    2.5435876136    3.1180646588
H       -4.1913955906    1.4317547914    4.3094544497
H        0.6317479425    2.9003491731    3.4330711814
H        2.0934181668    3.1414073736    2.4534081775
H        1.5929719364    1.5000618890    2.9069799902
H       -0.7389518394    4.2135322719    1.6355131766
H       -0.6563377120    3.6698219554   -0.0553518185
H        0.7579929526    4.4286982073    0.7027159873
H        1.0568980777    1.9916716223    0.5436287287
H       -4.2971022136   -2.0004186753    1.8067835408
H       -6.7867165406   -2.5335807905    4.2549477110
28   

C       -0.8958475874    0.3007646538    0.6803674638
C       -1.9754849367   -0.5815797628    0.8209256742
C       -1.7866153612    1.6909623356    2.4596797358
C       -3.9938153491    0.7631082391    3.4915516086
C       -2.8566079262    0.8006028456    2.5892876105
C       -0.7827554078    1.4483344208    1.4944972364
C       -2.9432845061   -0.3113764781    1.7803926563
C       -4.7373286877   -0.3591525146    3.1767644894
C       -5.8680229722   -0.9306431795    3.9184847065
C        1.2198020816    2.4620420425    2.6171816805
C       -0.0673854752    3.7691356688    0.8830848325
C        0.3998133567    2.3802882295    1.3260791186
N       -4.0786631853   -1.0355689340    2.1227346304
O       -6.8039965676   -0.3109462785    4.3891141453
O       -5.8585705683   -2.2868306816    3.9318200166
H       -0.1391248374    0.0883062495   -0.0660233364
H       -2.0537549848   -1.4627365057    0.1968087786
H       -1.7346276478    2.5571286582    3.1076346919
H       -4.2058418321    1.4601534237    4.2934061536
H        0.6244137313    2.8766204663    3.4361433996
H        2.0964700689    3.1001332365    2.4681298701
H        1.5652278734    1.4641752743    2.9056998572
H       -0.7126229496    4.2256575764    1.6397019747
H       -0.6267195580    3.6941724531   -0.0548929261
H        0.7944434389    4.4235419813    0.7192756926
H        1.0538878878    1.9830031148    0.5426031236
H       -4.3522601145   -1.9441791386    1.7571909643
H       -6.6627414801   -2.5341125221    4.4163234460
28   

C       -0.9225931104    0.3168766586    0.6560036074
C       -2.0107888851   -0.5566328243    0.7845861774
C       -1.8016132107    1.6928551608    2.4521362815
C       -4.0162755048    0.7696781885    3.4731167595
C       -2.8801353090    0.8110495810    2.5698178025
C       -0.7992616458    1.4528998482    1.4846403450
C       -2.9766720981   -0.2892325176    1.7467821112
C       -4.7699200906   -0.3396920674    3.1436219910
C       -5.8940696780   -0.9315941741    3.8932503350
C        1.2088811035    2.4380240289    2.6240775964
C       -0.0601149313    3.7716128743    0.8966662370
C        0.3928460715    2.3749209989    1.3293646423
N       -4.1176860640   -1.0084221143    2.0803641771
O       -6.9383429236   -0.3764327842    4.1773857444
O       -5.7256676008   -2.2544803202    4.1336363186
H       -0.1671036349    0.1063594477   -0.0921917937
H       -2.0965674775   -1.4293464268    0.1496918698
H       -1.7415012052    2.5498854193    3.1114086108
H       -4.2164471707    1.4540892217    4.2885776999
H        0.6146703572    2.8515141092    3.4444242577
H        2.0921281663    3.0689202405    2.4834495348
H        1.5437830819    1.4345403573    2.9054398880
H       -0.7046045278    4.2270071740    1.6546043338
H       -0.6161130850    3.7097439196   -0.0442505459
H        0.8081288601    4.4197687477    0.7421797337
H        1.0462957184    1.9783677194    0.5449894121
H       -4.3916587429   -1.9114007247    1.7025464780
H       -6.5352031685   -2.5280214354    4.5941012533
28   

C       -0.9246725156    0.2880044611    0.6435240725
C       -1.9992304977   -0.6038820837    0.7579226850
C       -1.8371806360    1.6343522756    2.4456385872
C       -4.0482813151    0.6699306682    3.4391282235
C       -2.9026451211    0.7347730570    2.5486991105
C       -0.8247643847    1.4184659504    1.4827283372
C       -2.9750547284   -0.3601522295    1.7162951626
C       -4.7772240244   -0.4476294908    3.0966810807
C       -5.9288305161   -1.0575531594    3.8076997447
C        1.1706251990    2.4090838213    2.6359558525
C       -0.1198624205    3.7598961352    0.9378421035
C        0.3529019058    2.3610668121    1.3418866936
N       -4.1080096745   -1.0988019753    2.0332410324
O       -7.0651516508   -0.6275459136    3.8273465415
O       -5.6286840629   -2.2533739526    4.3661931533
H       -0.1615146865    0.0962466400   -0.1019358020
H       -2.0672054452   -1.4720187723    0.1146569253
H       -1.7950298574    2.4869543196    3.1119836177
H       -4.2708919608    1.3503247394    4.2519094417
H        0.5715615464    2.7958662634    3.4657688542
H        2.0440945193    3.0559077664    2.5071698516
H        1.5209796773    1.4049400573    2.8953426615
H       -0.7673377025    4.1924919312    1.7064674609
H       -0.6782295706    3.7090249239   -0.0023290432
H        0.7394049083    4.4221242746    0.7931260902
H        1.0097683296    1.9895118226    0.5481697426
H       -4.3739779480   -1.9902507374    1.6246453844
H       -6.4573151949   -2.5562405807    4.7703699664
28   

C       -0.8217962976    0.2400544350    0.7080050541
C       -1.8624536918   -0.6893306030    0.8349897981
C       -1.7635746495    1.5568308360    2.5171149522
C       -3.9601724292    0.5444208695    3.4978403269
C       -2.7970237195    0.6217172451    2.6307390120
C       -0.7540432423    1.3752449845    1.5439516201
C       -2.8371040360   -0.4778500474    1.8021169685
C       -4.6512399243   -0.5942563146    3.1606607866
C       -5.9479945077   -1.1089150896    3.6923408626
C        1.2361653306    2.4194876724    2.6491031402
C       -0.1534844002    3.7538735840    1.0173710158
C        0.3808894113    2.3654032446    1.3805932582
N       -3.9578250030   -1.2386892926    2.1092316744
O       -7.0409112536   -0.8423953158    3.2349022983
O       -5.8117749811   -1.9273975208    4.7599937181
H       -0.0626374607    0.0766680970   -0.0482291239
H       -1.9100862058   -1.5565467668    0.1886558267
H       -1.7494540568    2.4160545777    3.1760684319
H       -4.2459140251    1.2614176400    4.2574945126
H        0.6479631477    2.7657307189    3.5042609280
H        2.0800050170    3.1018830508    2.5073000754
H        1.6318846208    1.4244342169    2.8762453073
H       -0.7882446761    4.1521741796    1.8145275585
H       -0.7414930612    3.6996485470    0.0956186085
H        0.6772420566    4.4478583821    0.8555764271
H        1.0243827085    2.0326870070    0.5591637339
H       -4.2438555747   -2.0939248263    1.6412132989
H       -6.7168096972   -2.1770594327    5.0048994154
28   

C       -0.7439209055    0.1572877713    0.7589804391
C       -1.7460337472   -0.8104600588    0.9106143082
C       -1.6912247961    1.4398045503    2.5891293198
C       -3.8513081735    0.3746548659    3.5871694686
C       -2.6873640851    0.4681730897    2.7247173336
C       -0.6992229737    1.2956434939    1.5923575159
C       -2.7061627405   -0.6339631239    1.8992622720
C       -4.5177212593   -0.7890634660    3.2618941724
C       -5.8931500848   -1.1982705473    3.6370293352
C        1.2926307372    2.4020265969    2.6248761874
C       -0.2159164670    3.7073320253    1.0779218080
C        0.3858892852    2.3342679979    1.3939618118
N       -3.8084683559   -1.4199695502    2.2124622277
O       -6.8444208643   -1.1888765178    2.8768579809
O       -6.0403168730   -1.4929583349    4.9485448505
H        0.0002040353    0.0239535843   -0.0178024671
H       -1.7804573983   -1.6759022051    0.2610649531
H       -1.6985582400    2.3030947463    3.2428447859
H       -4.1830520991    1.1176677200    4.3018651322
H        0.7278033360    2.7086578747    3.5104336279
H        2.1011788101    3.1209411227    2.4599425211
H        1.7374189883    1.4202238773    2.8158932426
H       -0.8267152830    4.0713614521    1.9093954873
H       -0.8436983927    3.6449484893    0.1833082681
H        0.5803552116    4.4342307700    0.8894002520
H        1.0041588690    2.0401076443    0.5391368565
H       -4.1146456941   -2.2441549345    1.7024282390
H       -6.9828550082   -1.6956472346    5.0585042312
28   

C       -0.7579420389    0.1641610562    0.7396950985
C       -1.7583564692   -0.8059158581    0.8876179856
C       -1.6846072725    1.4183046555    2.5998626136
C       -3.8344114143    0.3388104427    3.6042226102
C       -2.6790877343    0.4445102116    2.7316999906
C       -0.7040771140    1.2897773156    1.5897044366
C       -2.7072940522   -0.6447544085    1.8895321122
C       -4.5059452877   -0.8219427994    3.2684075845
C       -5.8724523689   -1.2385256555    3.6315096434
C        1.2965764141    2.3858084053    2.6170231532
C       -0.2290760144    3.7081767104    1.1016530738
C        0.3779033282    2.3322017729    1.3942898197
N       -3.8073502179   -1.4343804358    2.2013736596
O       -6.7562650720   -1.4747885331    2.8241463212
O       -6.1182743899   -1.2205599111    4.9616026684
H       -0.0227036271    0.0429117509   -0.0474550170
H       -1.8004676450   -1.6612184435    0.2251874086
H       -1.6849396718    2.2717170717    3.2664739734
H       -4.1605204081    1.0714987275    4.3322040753
H        0.7401535812    2.6806556181    3.5118491707
H        2.1025571173    3.1078369076    2.4531283020
H        1.7444333526    1.4023065615    2.7913740933
H       -0.8324669680    4.0604138619    1.9435589501
H       -0.8653632274    3.6561702240    0.2123956322
H        0.5641608136    4.4388121227    0.9148011331
H        0.9882080406    2.0498657230    0.5298105510
H       -4.1307745535   -2.2420597266    1.6748470891
H       -7.0537186356   -1.4634519205    5.0491610642
28   

C       -0.7797352910    0.1994893563    0.7074152897
C       -1.7853578325   -0.7663972010    0.8463650859
C       -1.6867329870    1.4299931062    2.5930852241
C       -3.8314042601    0.3422325033    3.6013901004
C       -2.6862605892    0.4602411675    2.7164797162
C       -0.7133568867    1.3111140962    1.5747660851
C       -2.7266015569   -0.6152373636    1.8569288445
C       -4.5104849702   -0.8114995654    3.2529426883
C       -5.8466392577   -1.2737979431    3.6447136256
C        1.2973675220    2.3808108365    2.6116575247
C       -0.2233624929    3.7313698134    1.1161784651
C        0.3755535515    2.3482467715    1.3904108809
N       -3.8258793775   -1.4060724319    2.1674968520
O       -6.6656075215   -1.7429806067    2.8685574269
O       -6.1574039847   -1.0353122697    4.9399902848
H       -0.0496262745    0.0854077029   -0.0855586731
H       -1.8363515697   -1.6118525560    0.1719963657
H       -1.6763817000    2.2719577129    3.2740300358
H       -4.1416067619    1.0567204642    4.3541450726
H        0.7452199510    2.6687860289    3.5113453981
H        2.1079431657    3.0991968755    2.4545326813
H        1.7388977304    1.3922638559    2.7731814586
H       -0.8231939946    4.0764319808    1.9635923237
H       -0.8615303238    3.6942846949    0.2275226051
H        0.5740164538    4.4594068661    0.9370347493
H        0.9822703385    2.0725574521    0.5212721965
H       -4.1575851396   -2.2098152573    1.6391480426
H       -7.0704160291   -1.3480570716    5.0422307055
28   

C       -0.8191412216    0.2272796593    0.6715786240
C       -1.8334232654   -0.7304163184    0.8032396320
C       -1.7038804492    1.4415345452    2.5784259849
C       -3.8450890314    0.3524985424    3.5947048168
C       -2.7118432644    0.4796941286    2.6951717069
C       -0.7369675010    1.3263341249    1.5534606379
C       -2.7672351781   -0.5837428734    1.8212130614
C       -4.5345213537   -0.7925578969    3.2365307664
C       -5.8312240936   -1.3082785185    3.6743937770
C        1.2859691166    2.3634039008    2.6014534598
C       -0.2198965307    3.7442829976    1.1185284877
C        0.3639798207    2.3524587702    1.3797405893
N       -3.8663923906   -1.3734413875    2.1341205429
O       -6.5694137211   -1.9889497970    2.9756171731
O       -6.2046952291   -0.9015006527    4.9101984456
H       -0.0935718015    0.1156994103   -0.1259036056
H       -1.8951544951   -1.5677119253    0.1196293003
H       -1.6799575397    2.2729170341    3.2719239824
H       -4.1330555883    1.0473620884    4.3743037899
H        0.7373075607    2.6497578359    3.5037756465
H        2.1048204731    3.0737585357    2.4508282701
H        1.7161429115    1.3684655240    2.7542132182
H       -0.8168988643    4.0870776860    1.9688684744
H       -0.8576474888    3.7224092400    0.2290758587
H        0.5853067689    4.4655144971    0.9470877491
H        0.9680731870    2.0781552008    0.5083384342
H       -4.1998174685   -2.1830249073    1.6150630104
H       -7.0835703681   -1.2893508315    5.0484065439
28   

C       -0.8908736418    0.2300978425    0.6208646255
C       -1.9188700084   -0.7134183073    0.7474851861
C       -1.7422719352    1.4321052779    2.5507069883
C       -3.8808115058    0.3506523709    3.5824137867
C       -2.7634872430    0.4838179065    2.6633758809
C       -0.7848732293    1.3155519806    1.5169112105
C       -2.8420915578   -0.5664242316    1.7749219399
C       -4.5873763992   -0.7815025797    3.2157750104
C       -5.8371037687   -1.3473621823    3.7156515751
C        1.2532111258    2.3147250082    2.5758927109
C       -0.2276560949    3.7250712704    1.0953544657
C        0.3339325996    2.3235392966    1.3518061740
N       -3.9432575524   -1.3506575174    2.0936547192
O       -6.4818163694   -2.2064048139    3.1287967693
O       -6.2681295407   -0.8125063246    4.8822381519
H       -0.1720627904    0.1169861962   -0.1824999451
H       -1.9972021616   -1.5420427507    0.0550530609
H       -1.6982889616    2.2519859783    3.2568093759
H       -4.1368772189    1.0229423857    4.3924189364
H        0.7078636328    2.6074814346    3.4781428362
H        2.0842824727    3.0116611419    2.4295160672
H        1.6663333165    1.3122241794    2.7263192204
H       -0.8229344226    4.0720464200    1.9452358175
H       -0.8622529363    3.7169758836    0.2034203483
H        0.5889695953    4.4348954938    0.9305519230
H        0.9361844231    2.0432376124    0.4810377182
H       -4.2759735073   -2.1706021516    1.5901491788
H       -7.1027073464   -1.2687511125    5.0754415182
28   

C       -0.9242979853    0.2957630503    0.5687671556
C       -1.9643003347   -0.6367168447    0.6774076849
C       -1.7570471060    1.4679612747    2.5249650920
C       -3.8931746733    0.3776671001    3.5531632264
C       -2.7894558761    0.5299501035    2.6205540560
C       -0.8026223184    1.3604745983    1.4874098859
C       -2.8834675049   -0.4997280495    1.7098120514
C       -4.6110752842   -0.7411827637    3.1681267914
C       -5.8023309394   -1.3745190379    3.7238753191
C        1.2434415263    2.3144847660    2.5756826930
C       -0.2071453744    3.7656574784    1.1045745345
C        0.3328211775    2.3532170634    1.3453707920
N       -3.9849729515   -1.2852652513    2.0236563030
O       -6.3227331952   -2.3789757096    3.2558742072
O       -6.3065837557   -0.7606171287    4.8201214029
H       -0.2068647537    0.1888042309   -0.2366680057
H       -2.0524080168   -1.4517030905   -0.0298828032
H       -1.6990275695    2.2699956534    3.2502941559
H       -4.1200567163    1.0162631227    4.3983812699
H        0.6968251816    2.6040324132    3.4781786270
H        2.0859930148    3.0005029725    2.4440078945
H        1.6404524754    1.3040193885    2.7159392328
H       -0.8047043344    4.1081941985    1.9546790904
H       -0.8345244312    3.7787626233    0.2076179469
H        0.6204687629    4.4663502617    0.9564573120
H        0.9375651838    2.0760031463    0.4753416814
H       -4.3057214850   -2.1159645147    1.5298940261
H       -7.0822978343   -1.2878550894    5.0697343722
