14   

C       -1.7011906900   -0.2959297774    0.1205197588
C        0.4076507823   -0.7134711401    0.1434816868
C        1.7730573129   -1.3318565289    0.0555675803
C        0.2773311457    0.8242679608    0.1942988081
N        1.3613758710    2.0365410416   -1.9197185117
N       -1.1913227842    0.9108314676    0.1723615609
N       -0.7573022503   -1.3064993691    0.0911884550
N        0.8682053770    1.4878202526   -0.9739554820
N        1.8227321580   -2.6275193672   -0.2958711529
O        2.7942452492   -0.6755389796    0.1547580186
H       -2.7725679857   -0.4822412167    0.0993091511
H        0.7080040928    1.2170656534    1.1249219617
H        2.7417109694   -3.0533835376   -0.3786888126
H        0.9749152802   -3.1821535170   -0.3713890732
14   

C       -1.7273879059   -0.3290658584    0.1096062233
C        0.3844786400   -0.7221975334    0.2211090475
C        1.7549254493   -1.3379939925    0.1760723541
C        0.2360204193    0.8170008366    0.1814011877
N        1.3688797488    1.9233674762   -1.9647664169
N       -1.2320605259    0.8847993160    0.1134078722
N       -0.7725797092   -1.3288754353    0.1532997098
N        0.8551159264    1.4210103119   -1.0042655908
N        1.8391590504   -2.5547442420   -0.3971478306
O        2.7631820417   -0.6933517578    0.4006189697
H       -2.7958368411   -0.5288625803    0.0707381406
H        0.6353777344    1.2651072076    1.1010746984
H        2.7656384756   -2.9654082710   -0.4741409498
H        1.0039933284   -3.1060422923   -0.5720888702
14   

C       -1.7313601174   -0.3398431685    0.0281196031
C        0.3690076636   -0.7524051844    0.2530198917
C        1.7269031564   -1.4014634872    0.2965033448
C        0.2382949966    0.7905043621    0.1545090687
N        1.4562096750    1.8098706725   -1.9879993737
N       -1.2248273745    0.8693739270    0.0240040964
N       -0.7897424599   -1.3473223441    0.1351085679
N        0.9068543748    1.3452487245   -1.0281135092
N        1.8911293754   -2.4848975083   -0.4952976491
O        2.7050857294   -0.8111667480    0.7159501997
H       -2.7993852440   -0.5307752219   -0.0483956637
H        0.6068764013    1.2664717430    1.0732296686
H        2.8230532565   -2.8900863562   -0.5202925287
H        1.0864239452   -3.0090147867   -0.8261531100
14   

C       -1.7346150988   -0.2961788289   -0.0345879050
C        0.3474558878   -0.7520451430    0.2677182009
C        1.6803901280   -1.4461387210    0.3928176440
C        0.2566422194    0.7940776668    0.1112689789
N        1.5279585404    1.7105689853   -2.0465493832
N       -1.2007095511    0.9011422581   -0.0569723580
N       -0.8201744194   -1.3216454579    0.1231824869
N        0.9571827038    1.2908141501   -1.0784354892
N        1.9729381869   -2.3616467768   -0.5622428206
O        2.5966579568   -0.9442985649    1.0160058880
H       -2.8046877580   -0.4650560996   -0.1313601828
H        0.6169645465    1.2942736908    1.0205464411
H        2.9052093884   -2.7647661452   -0.5154191201
H        1.2279044487   -2.8434240553   -1.0562233456
14   

C       -1.7534612090   -0.2775825293   -0.0181687727
C        0.3180538823   -0.7738718897    0.2958949870
C        1.6277624011   -1.5074585558    0.4643432764
C        0.2640426328    0.7698119380    0.0774664115
N        1.5299545447    1.5785121569   -2.1261802825
N       -1.1911246850    0.9049261906   -0.0884211092
N       -0.8635307273   -1.3180769163    0.1743143602
N        0.9633832756    1.2058914089   -1.1364404433
N        2.0526648457   -2.2348355626   -0.6018773895
O        2.4640849857   -1.1257595416    1.2600512649
H       -2.8278157157   -0.4242737255   -0.1028117802
H        0.6402159575    1.2970169050    0.9649378000
H        2.9793052964   -2.6416419113   -0.4997197756
H        1.3782060204   -2.6581734741   -1.2315808186
14   

C       -1.7680031875   -0.2460642629    0.0784344671
C        0.2996597480   -0.7920059971    0.3356095833
C        1.5871909244   -1.5656348305    0.5192980856
C        0.2807000240    0.7442573086    0.0490003350
N        1.4763574798    1.4389576273   -2.2315909496
N       -1.1751226763    0.9140330148   -0.0720610698
N       -0.9019330978   -1.3019449438    0.2908985280
N        0.9425177295    1.1158803823   -1.2067338917
N        2.1277107170   -2.0930091785   -0.6171458446
O        2.3326414411   -1.3501145800    1.4545877245
H       -2.8484766272   -0.3646053245    0.0401631977
H        0.6993794264    1.2988093913    0.9000627569
H        3.0428238578   -2.5170052023   -0.4815925186
H        1.5209702078   -2.4350963563   -1.3552413519
14   

C       -1.7830052953   -0.1865549424    0.2354846033
C        0.2774416643   -0.8051179342    0.3704896714
C        1.5384658250   -1.6240434986    0.5644918811
C        0.2934019919    0.7187467279    0.0131790579
N        1.3402334837    1.3014627526   -2.3699756976
N       -1.1600923569    0.9389916073   -0.0203971864
N       -0.9433418713   -1.2615065491    0.4521809278
N        0.8745247949    1.0259015949   -1.2988547658
N        2.1992214636   -1.9494307370   -0.5922723189
O        2.1516256049   -1.6505220215    1.6129168912
H       -2.8671063690   -0.2648746906    0.2750038082
H        0.7827977614    1.2946889694    0.8105421736
H        3.0900491356   -2.4141998223   -0.4275342103
H        1.6722438537   -2.1727321915   -1.4295686419
14   

C       -1.7822567116   -0.0887009899    0.4085894562
C        0.2545751482   -0.8047040013    0.3858589030
C        1.4831073331   -1.6721015969    0.5933588622
C        0.3027634664    0.7012822517   -0.0464225339
N        1.1194911567    1.1642434130   -2.5437508472
N       -1.1360679203    0.9906543572    0.0378616528
N       -0.9729461373   -1.1864173185    0.6172635016
N        0.7596616283    0.9387106313   -1.4210026043
N        2.2774708666   -1.8110286572   -0.5236492329
O        1.8931485861   -2.0366368327    1.6770968483
H       -2.8611104820   -0.1146631189    0.5441873081
H        0.8848526658    1.2910971560    0.6746684512
H        3.1183677610   -2.3561784840   -0.3406668232
H        1.8619058466   -1.8461945545   -1.4466208751
14   

C       -1.7614660573   -0.0206298222    0.5550511986
C        0.2390099571   -0.8274062185    0.3870258388
C        1.4329334211   -1.7487110592    0.5755436052
C        0.3093620072    0.6659019749   -0.0871899648
N        0.8673591231    1.0463512738   -2.6691920472
N       -1.1016739529    1.0233544970    0.1149665724
N       -0.9825160928   -1.1446838806    0.7263802166
N        0.6280831732    0.8558189335   -1.5079548345
N        2.3557810668   -1.7023535717   -0.4539749633
O        1.6538368587   -2.4247272972    1.5605316402
H       -2.8264421169    0.0005562254    0.7749585873
H        0.9802627895    1.2495696863    0.5574991017
H        3.1469081190   -2.3252495559   -0.2974856477
H        2.0863372024   -1.4777278149   -1.4020369417
14   

C       -1.7440551685    0.0401241785    0.6212213565
C        0.2232454515   -0.8375290676    0.3737468881
C        1.3764366113   -1.8157945417    0.5457294184
C        0.3118612943    0.6465596772   -0.1325364808
N        0.6858594706    0.9195369097   -2.7619201386
N       -1.0711950683    1.0579594343    0.1424710960
N       -0.9940603178   -1.1057833183    0.7691622789
N        0.5335461437    0.7803551172   -1.5784215322
N        2.4332023924   -1.6226293154   -0.3283450838
O        1.4315967009   -2.7110671505    1.3656625992
H       -2.7960400144    0.0978515197    0.8913619071
H        1.0418863725    1.2240898510    0.4502223985
H        3.1839373810   -2.3009844199   -0.2071584664
H        2.3880144854   -1.0650078081   -1.1684716626
14   

C       -1.7418869679   -0.3644458916   -0.1653224898
C        0.3485540042   -0.7484078713    0.2830202006
C        1.6090552851   -1.5423752629    0.5939521648
C        0.1247883611    0.8000940600    0.3898817965
N        1.3787931571    2.1746232183   -1.5254207911
N       -1.3121587092    0.8463084695    0.0918910812
N       -0.7705427579   -1.3347123782   -0.0574985782
N        0.8298238637    1.5509184677   -0.6575908764
N        2.7542834529   -0.7673156778    0.7026709921
O        1.6982903206   -2.7536592764    0.6408179375
H       -2.7740178818   -0.5862657889   -0.4270336680
H        0.3509179822    1.1762087507    1.3959886348
H        3.5973943867   -1.3152162856    0.8687509032
H        2.7787075638    0.2382323568    0.7907951780
14   

C       -1.7513687303   -0.3569983534   -0.1102409389
C        0.3455043941   -0.7562158356    0.2806253148
C        1.6294302241   -1.5332064724    0.5137434681
C        0.1503806891    0.7957634342    0.3433430871
N        1.4001032398    2.0680324081   -1.6437235717
N       -1.2941370704    0.8553194180    0.0863418427
N       -0.7916483303   -1.3387992741    0.0000810779
N        0.8496378755    1.4925644777   -0.7443458831
N        2.7221039350   -0.7306094263    0.8123324212
O        1.7838763891   -2.7280161520    0.3537935295
H       -2.7948395076   -0.5707230498   -0.3304526626
H        0.4074570996    1.2016356878    1.3296616087
H        3.5811581606   -1.2648750076    0.9366440532
H        2.6632765055    0.2087802828    1.1800337682
14   

C       -1.7647357753   -0.3478535621   -0.0313226239
C        0.3426580357   -0.7366986184    0.2981037189
C        1.6517761835   -1.4883338979    0.4544104601
C        0.1542394689    0.8166830181    0.3084826950
N        1.3690255175    1.9948673218   -1.7560860306
N       -1.2982381381    0.8702305870    0.0981528591
N       -0.8034826052   -1.3284210224    0.0824284670
N        0.8317407427    1.4628078112   -0.8229368940
N        2.6887786218   -0.7091008631    0.9405229988
O        1.8673756330   -2.6302847384    0.0992039941
H       -2.8158756409   -0.5663113733   -0.2056288804
H        0.4435875322    1.2595638122    1.2690811417
H        3.5616749984   -1.2292490496    1.0198158775
H        2.5496089036    0.1060080839    1.5230838633
14   

C       -1.7517011778   -0.3385323002    0.0232317409
C        0.3658459686   -0.7068239256    0.2950943158
C        1.6941680767   -1.4335579347    0.3945407396
C        0.1715100070    0.8460139922    0.2580722620
N        1.3303933965    1.9419754790   -1.8820158340
N       -1.2877443837    0.8855130010    0.0955707298
N       -0.7822825379   -1.3119433928    0.1368592174
N        0.8167698522    1.4476619076   -0.9155423535
N        2.6691108802   -0.7380782834    1.0790351526
O        1.9704022690   -2.4820033281   -0.1541461649
H       -2.8070285933   -0.5664885129   -0.1083600130
H        0.4937260793    1.3236680508    1.1909712150
H        3.5512316268   -1.2460526563    1.1257948044
H        2.4533503644   -0.0664628827    1.8053517498
14   

C       -1.7473089342   -0.3422132463    0.0959710851
C        0.3815438403   -0.6771151668    0.2972371969
C        1.7274310793   -1.3741258488    0.3559239051
C        0.1693303269    0.8719650175    0.2097125435
N        1.2416343783    1.8802363175   -2.0165364982
N       -1.2959729277    0.8888815558    0.1059011577
N       -0.7629912136   -1.3019472599    0.2073977040
N        0.7657303537    1.4266642561   -1.0116495664
N        2.6324487356   -0.8119915624    1.2206433041
O        2.0793982599   -2.2681588533   -0.3881346889
H       -2.8042907202   -0.5852303511    0.0139870041
H        0.5283148192    1.3879310791    1.1083137219
H        3.5268362523   -1.2994052416    1.2328640586
H        2.3431926676   -0.2953206227    2.0430445725
14   

C       -1.6973094095   -0.3432886246    0.1734537025
C        0.4404894801   -0.6331122577    0.2944091480
C        1.8085438749   -1.2822926151    0.3324212919
C        0.2002034656    0.9080628477    0.1638755492
N        1.1845043949    1.8325359542   -2.1377329730
N       -1.2685905274    0.8950479430    0.1191703698
N       -0.6926072259   -1.2834666430    0.2834333888
N        0.7458906967    1.4191456517   -1.0992941733
N        2.6231474973   -0.8926953201    1.3556022831
O        2.2817459715   -1.9034759105   -0.5991509211
H       -2.7523780258   -0.6056430841    0.1420965710
H        0.5903924913    1.4592903313    1.0281867580
H        3.5473386035   -1.3190081792    1.3262753928
H        2.2487993003   -0.5803125509    2.2449160610
14   

C       -1.6792619673   -0.3261300250    0.2997726182
C        0.4597158670   -0.5986504840    0.3087769703
C        1.8439117054   -1.2027690333    0.3335417871
C        0.2068037792    0.9306732103    0.1116478431
N        1.0999929528    1.7223572751   -2.2745168085
N       -1.2627908062    0.9077110984    0.1413741710
N       -0.6637878109   -1.2551619203    0.4197707272
N        0.6985600112    1.3712771229   -1.1990729878
N        2.5802614216   -1.0076679452    1.4574601454
O        2.4277072854   -1.5081812665   -0.6889110903
H       -2.7330006586   -0.5926393105    0.3395418000
H        0.6380235082    1.5243235611    0.9272661952
H        3.5334921885   -1.3594816683    1.4000296185
H        2.1394545311   -0.8986435160    2.3649303458
14   

C       -1.6501915525   -0.3072777186    0.4359433843
C        0.4856122177   -0.5627934452    0.3410906135
C        1.8849345913   -1.1207718136    0.3602427515
C        0.2110497949    0.9472073669    0.0661652440
N        1.0081550981    1.6141310787   -2.3906157694
N       -1.2557217827    0.9142159637    0.1652651671
N       -0.6195197975   -1.2178292448    0.5750797161
N        0.6462281998    1.3197510992   -1.2848809247
N        2.5459333391   -1.1279410189    1.5393450526
O        2.5488020282   -1.1764253385   -0.6584434020
H       -2.6980002053   -0.5773986741    0.5459196521
H        0.6725170853    1.5874486013    0.8284282400
H        3.5174805502   -1.4246176983    1.4855138098
H        2.0473292624   -1.1800920340    2.4218968325
14   

C       -1.6190803197   -0.2698723887    0.5164443214
C        0.5117357388   -0.5169950385    0.3501013812
C        1.9224868327   -1.0388321313    0.3794549617
C        0.2160623447    0.9676361074   -0.0085262956
N        0.9273024836    1.5110965775   -2.5211119775
N       -1.2462811065    0.9313788640    0.1444101253
N       -0.5748960271   -1.1609157602    0.6823430419
N        0.6015062140    1.2708179444   -1.3915879412
N        2.4964020544   -1.2534288673    1.5800398381
O        2.6552760098   -0.9070153801   -0.5841428460
H       -2.6597237593   -0.5382201916    0.6838136420
H        0.6979431187    1.6540556692    0.6991303888
H        3.4777136408   -1.5191300364    1.5573841666
H        1.9349092610   -1.4329158603    2.4065271700
14   

C       -1.5892529243   -0.2581442072    0.5702211028
C        0.5419548465   -0.4705212327    0.3761538444
C        1.9677113205   -0.9442189985    0.4209996901
C        0.2114892658    0.9814541624   -0.0582800305
N        0.8657925063    1.4235401602   -2.6058320758
N       -1.2472849306    0.9261972431    0.1228474142
N       -0.5238615633   -1.1175151759    0.7666966655
N        0.5643590855    1.2264894534   -1.4614729197
N        2.4545427461   -1.3685678446    1.6010429526
O        2.7567407146   -0.6483289201   -0.4584834483
H       -2.6211283825   -0.5359844162    0.7727349360
H        0.6918685755    1.7130108092    0.6039066576
H        3.4423587426   -1.6081446658    1.6195936977
H        1.8351143564   -1.6641088343    2.3493061527
14   

C       -1.7185990841   -0.3035612252    0.1116187283
C        0.3696438190   -0.7438078203   -0.1461933379
C        1.7067045497   -1.3940819814   -0.3581411197
C        0.2963067926    0.7348939343    0.3039455367
N        1.2683870138    2.3992371278   -1.5395593401
N       -1.1666785074    0.8474648556    0.4115192999
N       -0.8121582458   -1.2992304908   -0.2036978221
N        0.8240482948    1.6527839513   -0.7123213716
N        1.8863852030   -2.6263303012    0.1450787747
O        2.6768798315   -0.7536071600   -0.7222147905
H       -2.7949671779   -0.4597692491    0.1160979820
H        0.8035242450    0.8797657135    1.2664859716
H        2.8151369323   -3.0282429312    0.0501840916
H        1.0973112614   -3.1955499741    0.4360650460
14   

C       -1.7060139015   -0.2981543319    0.1122676822
C        0.3901938733   -0.7301349238   -0.0835396648
C        1.7393819386   -1.3651612835   -0.2542185729
C        0.2961868070    0.7704192003    0.2705846787
N        1.2759887921    2.3383134230   -1.6517444332
N       -1.1693149166    0.8739471802    0.3516885856
N       -0.7855011067   -1.2999822215   -0.1358352797
N        0.8281784567    1.6337059369   -0.7904726936
N        1.8506531664   -2.6666299661    0.0501410765
O        2.7390574798   -0.7063098045   -0.4794514226
H       -2.7807442900   -0.4653459485    0.1132232004
H        0.7886843243    0.9785940191    1.2293119098
H        2.7752294978   -3.0822423179   -0.0224730909
H        1.0297377248   -3.2368145339    0.2308182140
14   

C       -1.7037635182   -0.2952736728    0.1268212625
C        0.3984774884   -0.7219934193   -0.0024243345
C        1.7559785486   -1.3451779884   -0.1433545785
C        0.2885924185    0.7959980554    0.2512724117
N        1.2893419555    2.2532926791   -1.7458849987
N       -1.1787427224    0.8931581189    0.3030096369
N       -0.7726532302   -1.3022579271   -0.0512127153
N        0.8323951646    1.5969622010   -0.8519289006
N        1.8288888149   -2.6803349572   -0.0529481647
O        2.7696839883   -0.6783200643   -0.2522340368
H       -2.7771965665   -0.4705821528    0.1234103688
H        0.7638804909    1.0675011520    1.2029659635
H        2.7501059950   -3.1036688700   -0.1225566599
H        0.9913970762   -3.2483653534    0.0356631393
14   

C       -1.7056256414   -0.3041926499    0.1204194154
C        0.4025670370   -0.7196837734    0.0677136265
C        1.7671851627   -1.3332383370   -0.0468988937
C        0.2749303119    0.8107605644    0.2196947955
N        1.3111631600    2.1516879000   -1.8399227887
N       -1.1938671566    0.8975305497    0.2342298313
N       -0.7631504759   -1.3111635301    0.0172264421
N        0.8387431372    1.5463629379   -0.9184386674
N        1.8233543802   -2.6665452237   -0.1770542315
O        2.7855480233   -0.6647881515   -0.0503432318
H       -2.7773461451   -0.4892966360    0.1078176918
H        0.7263745912    1.1454959112    1.1629525895
H        2.7434780704   -3.0913052474   -0.2519772151
H        0.9787542994   -3.2310623976   -0.1715172242
