36

C     -2.37401   -4.80862    4.46703
C     -1.01456   -4.65942    4.76640
C     -3.07650   -3.74506    3.89272
C      0.33005    2.69386   -1.16794
C     -0.78397    2.83043   -0.33026
C     -0.36350   -3.45497    4.48584
C     -2.42121   -2.54028    3.61353
C      0.90669    1.43798   -1.36685
C     -1.32836    1.72133    0.32495
C     -1.05884   -2.38110    3.90695
C      0.35376    0.33478   -0.71717
C     -0.75080    0.47070    0.13195
C      0.51379   -1.98825   -0.13176
C     -0.34813   -1.66042    1.06881
C     -0.33091   -1.10455    3.54821
C      0.52304   -1.26901    2.27298
N      0.85653   -0.98567   -0.92240
N      0.91702   -3.24034   -0.32821
O     -1.29712   -0.65206    0.71547
H     -2.88331   -5.74131    4.69274
H     -0.46740   -5.47533    5.23098
H     -4.13495   -3.84870    3.66983
H      0.74893    3.56187   -1.66632
H     -1.23024    3.80867   -0.18067
H      0.68876   -3.34089    4.74133
H     -2.97618   -1.71415    3.17383
H      1.76924    1.32068   -2.01870
H     -2.19273    1.81112    0.97544
H     -0.95162   -2.53547    1.32227
H     -1.04209   -0.28689    3.40319
H      0.34095   -0.80388    4.35829
H      1.06570   -0.34370    2.05060
H      1.26933   -2.05589    2.43082
H      1.45367   -1.14215   -1.73128
H      1.53124   -3.51556   -1.08859
H      0.61204   -3.97210    0.30482
