33

C     -5.27104   -0.07812   -4.36987
C     -7.47103   -1.04110   -4.54846
C     -4.86346   -1.22449   -3.67880
C     -6.58959    0.00930   -4.80455
C     -5.82096   -2.23580   -3.44589
C     -0.86880    0.58549   -2.41601
C     -0.29151    0.66674   -3.81595
C     -5.02308   -3.42377   -1.27588
C     -6.39638   -3.96130   -1.62240
C     -1.17606   -0.49251   -3.43005
C     -5.47010   -3.51043   -2.72372
C     -4.86566   -4.58358   -3.61907
C     -3.43533   -1.33013   -3.17635
N     -7.08773   -2.13378   -3.88214
N     -2.51170   -0.51999   -3.97522
Br    -7.20294    1.56274   -5.74776
H     -4.55680    0.71732   -4.55257
H     -8.50475   -1.00020   -4.88515
H     -0.20238    0.34485   -1.59304
H     -1.67808    1.26806   -2.17501
H     -0.72022    1.40461   -4.48684
H      0.76957    0.47887   -3.95051
H     -4.97278   -2.44261   -0.81179
H     -4.25924   -4.11951   -0.93780
H     -6.57213   -5.02858   -1.51998
H     -7.25916   -3.33920   -1.40831
H     -0.67927   -1.45536   -3.27339
H     -4.62553   -5.48212   -3.04094
H     -3.94408   -4.24036   -4.10317
H     -5.57501   -4.86304   -4.40522
H     -3.38940   -0.95295   -2.14718
H     -3.13531   -2.38538   -3.12154
H     -2.48457   -0.87761   -4.92943
