50

C      9.61169   -1.35176    0.61823
C      9.69221   -2.19159   -0.51573
C      8.40135   -0.79654    1.02355
C      1.54719    1.23408    0.80077
C      8.56443   -2.50007   -1.27731
C      0.92714    2.33688    1.39189
C      5.85631   -0.74092    0.34083
C      7.24964   -1.09525    0.27149
C      0.79779    0.25658    0.13819
C     -0.61123    0.35548    0.03600
C      7.36327   -1.93487   -0.85712
C     -1.22168    1.49536    0.58892
C     -0.44127    2.43967    1.26670
C      5.24455   -1.36981   -0.71094
C      3.84547   -1.38546   -1.18283
C     -0.70879   -2.09358   -0.31882
C      1.51358   -0.84763   -0.62703
C     -1.38003   -0.75432   -0.69372
C      0.78288   -2.23520   -0.63916
C     -1.36510   -0.49496   -2.21738
C     -2.85203   -0.90790   -0.24955
C      1.39148   -3.20736    0.40557
N      2.92735   -0.92161   -0.27705
O      3.53681   -1.76665   -2.31673
O      6.14296   -2.09933   -1.45522
O     -2.56603    1.72712    0.46712
O      0.90027   -2.83916   -1.91489
F     -1.10753    3.51467    1.79505
F      0.60963   -4.28891    0.60112
F      2.61081   -3.67129    0.05004
F      1.53676   -2.59459    1.62076
H     10.51583   -1.13874    1.18162
H     10.65484   -2.60621   -0.80141
H      8.34813   -0.15245    1.89697
H      2.62799    1.16885    0.82617
H      8.61290   -3.14236   -2.15088
H      1.48669    3.10702    1.91321
H      5.38449   -0.08347    1.05976
H     -0.86360   -2.23703    0.75436
H     -1.21443   -2.91496   -0.83155
H      1.50230   -0.55209   -1.67868
H     -1.87252   -1.31190   -2.74055
H     -0.35772   -0.42408   -2.63085
H     -1.89189    0.43826   -2.43937
H     -3.24405   -1.84543   -0.65805
H     -3.47788   -0.09336   -0.60970
H     -2.94345   -0.94928    0.84008
H      3.16580   -0.97592    0.70539
H     -2.76729    2.56322    0.92235
H      1.80479   -2.66792   -2.25581
