29   

C        3.0827244023   -2.8230503322    0.6829501777
C        2.3932140874   -1.6764134732    0.2806043925
C        2.9293006894   -3.3029072878    1.9862520053
C        1.5478872987   -1.0148072975    1.1784477159
C        2.0940833737   -2.6324261715    2.8869459770
C       -0.1546776618   -4.4152169808    5.6951753218
C       -0.0343709444   -5.6825638409    5.1192692191
C       -1.3773509387   -3.6741039318    3.7522003398
C        1.3909331718   -1.4815425091    2.4939293585
C       -0.8159264138   -3.3934827982    5.0062365287
C       -0.5708737671   -5.9551948743    3.8543384882
C       -1.2553314293   -4.9383405407    3.1641872998
C        0.5091501165   -0.7873169015    3.4275816395
C        0.3878060838   -0.8933446838    4.8032310948
O       -2.2156646043   -1.0964418829    5.3491377887
O       -0.6330818138   -1.7128773776    7.1423808989
S       -0.9261336337   -1.7117408648    5.7003690675
Cl      -0.3789379461   -7.5500390106    3.1595645582
Cl      -1.9473571930   -5.2216810594    1.5814234268
H        3.7344061376   -3.3384923629   -0.0138726726
H        2.5141190561   -1.2980998567   -0.7283020502
H        3.4573835840   -4.1962901489    2.2998074053
H        1.0221057345   -0.1254469083    0.8487279618
H        1.9840014196   -3.0196946882    3.8934744484
H        0.2700006657   -4.2225280890    6.6776233959
H        0.4834546974   -6.4694665461    5.6550197157
H       -1.9100075598   -2.8957376521    3.2128953022
H       -0.1891872503   -0.0921623339    2.9719338116
H        1.2330453162   -0.6349618001    5.4208343209
29   

C        2.8597092828   -3.1015655928    0.8814314627
C        2.1753210340   -1.9852220375    0.3948353258
C        2.7980954922   -3.4134225687    2.2416932818
C        1.4248492568   -1.1874676413    1.2658745850
C        2.0536830454   -2.6101677961    3.1125373615
C       -0.0699258435   -4.3963951010    5.5533706011
C        0.1152880174   -5.6118609864    4.8891807061
C       -1.2403247251   -3.5478114983    3.6222633156
C        1.3501342919   -1.4909951026    2.6357523453
C       -0.7345129067   -3.3447344203    4.9145646073
C       -0.3581941473   -5.8019521395    3.5844618738
C       -1.0500285370   -4.7575015385    2.9452130271
C        0.5415697750   -0.6668667387    3.5329816962
C        0.3628656861   -0.7591282830    4.8918645275
O       -2.2265805524   -1.1345670894    5.4091482132
O       -0.6276743364   -1.7979397934    7.1587927440
S       -0.9112073709   -1.7173103522    5.7170195953
Cl      -0.0776106425   -7.3289091562    2.7768002630
Cl      -1.6615014140   -4.9361959226    1.3147768760
H        3.4369373571   -3.7231250976    0.2058821232
H        2.2237036384   -1.7382184268   -0.6598295336
H        3.3267096696   -4.2795868590    2.6232028310
H        0.8967193067   -0.3284849873    0.8668525677
H        2.0199971463   -2.8668789378    4.1648273846
H        0.3107343376   -4.2652169310    6.5635594443
H        0.6378491782   -6.4212244084    5.3852089370
H       -1.7745718222   -2.7464120536    3.1198213077
H        0.0619682122    0.1915916169    3.0733035522
H        0.9270515726   -0.1158233127    5.5488803966
29   

C        2.7154851786   -3.3359120888    1.1730310718
C        1.9416906453   -2.3382828448    0.5752196264
C        2.8081012362   -3.3997800995    2.5651010727
C        1.2549359834   -1.4122251019    1.3686144951
C        2.1201297395   -2.4738963957    3.3567231939
C        0.0413517365   -4.3522041377    5.2816383928
C        0.2463674839   -5.4962965101    4.5060260238
C       -1.2236712172   -3.3814014022    3.4718960896
C        1.3233561206   -1.4752888117    2.7703028578
C       -0.6772557770   -3.2720426641    4.7589987152
C       -0.2603432234   -5.5860699103    3.2031546597
C       -1.0113372948   -4.5170368647    2.6823757271
C        0.5569883417   -0.5315974344    3.5915111066
C        0.3097579057   -0.6052979790    4.9287815607
O       -2.2233392285   -1.1804824333    5.5271966206
O       -0.5127083272   -1.9185518670    7.1195461085
S       -0.8679583327   -1.7244330323    5.7045950168
Cl       0.0546932788   -7.0194809083    2.2500680338
Cl      -1.6650359077   -4.5709357394    1.0594997276
H        3.2431207065   -4.0571239783    0.5587882646
H        1.8689606883   -2.2854163689   -0.5052951563
H        3.4112525989   -4.1692883474    3.0331889219
H        0.6516310626   -0.6518006473    0.8852596125
H        2.2053664131   -2.5376571699    4.4354832501
H        0.4521936366   -4.2961329787    6.2868053816
H        0.8137631297   -6.3256536643    4.9111081986
H       -1.8017705779   -2.5592563266    3.0602832549
H        0.2173143070    0.3708804246    3.0931825829
H        0.5764591574    0.2259214951    5.5631481508
29   

C        2.6433446143   -3.4021374541    1.2839209705
C        1.8734298688   -2.4229415289    0.6516026153
C        2.7531807171   -3.4048451061    2.6762435140
C        1.2071198467   -1.4546563218    1.4112581350
C        2.0834645574   -2.4381719921    3.4342342190
C        0.0385029081   -4.3777372261    5.1720281566
C        0.2442652769   -5.5052797102    4.3733578286
C       -1.2286702413   -3.3699427935    3.3841928795
C        1.2882190430   -1.4597054698    2.8135285382
C       -0.6811893614   -3.2867645620    4.6726794116
C       -0.2628804222   -5.5683037994    3.0693925687
C       -1.0150472329   -4.4891386515    2.5711944628
C        0.5491190935   -0.4630326373    3.6015159598
C        0.1777163589   -0.5370859577    4.9009296734
O       -2.2790691464   -1.2970093513    5.5821575673
O       -0.4637097533   -1.9933012075    7.0564819617
S       -0.8888016516   -1.7705383933    5.6650201126
Cl       0.0522155414   -6.9820988287    2.0875011394
Cl      -1.6704286725   -4.5113812892    0.9483513202
H        3.1555151332   -4.1557088034    0.6960031286
H        1.7882950776   -2.4168625936   -0.4292852132
H        3.3555910131   -4.1582648047    3.1706625856
H        0.6078054197   -0.7078015282    0.9024360193
H        2.1830639713   -2.4515912290    4.5137845532
H        0.4478321585   -4.3437911983    6.1788335192
H        0.8117037552   -6.3424879607    4.7618913070
H       -1.8098355379   -2.5411280872    2.9911812954
H        0.3338295264    0.4736011656    3.0969832962
H        0.2600140732    0.3492733349    5.5112319979
29   

C        3.1715663330   -3.5258367214    1.9047304592
C        2.1917092825   -2.9870968468    1.0666179551
C        3.2697730000   -3.0877191518    3.2276805308
C        1.3115704527   -2.0124490875    1.5507881850
C        2.3826300334   -2.1212855679    3.7135703562
C        0.1560065795   -4.2817306896    4.5084458333
C        0.0300438039   -5.2857795995    3.5477280714
C       -1.7921659017   -3.1889391617    3.6009551218
C        1.3863902772   -1.5765131221    2.8832335265
C       -0.7416530067   -3.2083593861    4.5284981033
C       -0.9954160144   -5.2470142595    2.5966160103
C       -1.9237201471   -4.1896040102    2.6290040797
C        0.4412454624   -0.5694488990    3.3935683275
C        0.0186328725   -0.4506164304    4.6670491825
O       -1.7831639730   -1.4741667012    6.3469992602
O        0.5445058438   -2.1507152724    6.6807745905
S       -0.5093428163   -1.8299401467    5.7032337407
Cl      -1.0969087617   -6.5076068891    1.3869365883
Cl      -3.2270297586   -4.0932752224    1.4648769043
H        3.8560869112   -4.2779888030    1.5284997465
H        2.1120129392   -3.3259764225    0.0397886959
H        4.0350133325   -3.4936030265    3.8799294954
H        0.5533648386   -1.6100235589    0.8883055679
H        2.4779991909   -1.7886894384    4.7425453571
H        0.9704789981   -4.3225746370    5.2273520592
H        0.7439702462   -6.1005025406    3.5284111409
H       -2.5103588448   -2.3745411606    3.6173850885
H        0.0797600226    0.1642551950    2.6802676118
H       -0.3021914649    0.5102282330    5.0394588467
29   

C        3.1591470445   -3.5437643277    1.9679055748
C        2.1851608554   -3.0078082548    1.1211784218
C        3.2719710674   -3.0748571172    3.2791646744
C        1.3255701748   -2.0055202853    1.5853523128
C        2.4044310043   -2.0811559028    3.7452564483
C        0.1711455734   -4.2859702260    4.4350195521
C        0.0248526783   -5.2894373752    3.4766947204
C       -1.7944545686   -3.1913782106    3.5688431908
C        1.4135482124   -1.5401628956    2.9068730432
C       -0.7261624137   -3.2128930722    4.4756492977
C       -1.0205664634   -5.2500968413    2.5477028975
C       -1.9468682361   -4.1916704725    2.5994187082
C        0.4914195913   -0.4965766593    3.3940130478
C       -0.0667401049   -0.4280106557    4.6129763685
O       -1.7219353634   -1.5455933231    6.3764497478
O        0.6426898255   -2.1364568314    6.5677963345
S       -0.4748764917   -1.8412608197    5.6546260127
Cl      -1.1494036575   -6.5115493056    1.3415044967
Cl      -3.2746753296   -4.0947010499    1.4633462587
H        3.8283043382   -4.3169903632    1.6070991201
H        2.0942569810   -3.3698015432    0.1032089802
H        4.0335890194   -3.4773116527    3.9377767322
H        0.5720109593   -1.6041980224    0.9169040718
H        2.5130042027   -1.7223092537    4.7639510599
H        1.0000863845   -4.3278917224    5.1371014175
H        0.7377279766   -6.1045812717    3.4426758087
H       -2.5118715591   -2.3768593748    3.6005211464
H        0.2221890720    0.2797473641    2.6850419752
H       -0.5036242588    0.4983270202    4.9534633362
29   

C        3.1318603631   -3.5617468902    2.0051375824
C        2.1603702732   -3.0110874758    1.1649442527
C        3.2695199833   -3.0853111459    3.3114645569
C        1.3285362191   -1.9864788789    1.6307596593
C        2.4287470665   -2.0694773200    3.7793316188
C        0.1847831476   -4.2948883784    4.4210924345
C        0.0418098728   -5.3044153972    3.4685707511
C       -1.7892721023   -3.2165873179    3.5541924873
C        1.4412729649   -1.5138681593    2.9476182170
C       -0.7193032292   -3.2275869290    4.4591468261
C       -1.0065312706   -5.2764759326    2.5424388950
C       -1.9385468368   -4.2229636167    2.5906298762
C        0.5488647022   -0.4412576017    3.4356859218
C       -0.1477296657   -0.4286973687    4.5801756972
O       -1.7131875662   -1.5958742717    6.3889188250
O        0.6729625506   -2.1124127849    6.5164579298
S       -0.4769931785   -1.8506471920    5.6335721607
Cl      -1.1319902812   -6.5458460985    1.3442061915
Cl      -3.2701989633   -4.1400046198    1.4579003848
H        3.7798627158   -4.3521316488    1.6429309866
H        2.0498950573   -3.3786533912    0.1509134908
H        4.0295861420   -3.4990676590    3.9648227590
H        0.5766280734   -1.5726058098    0.9681052233
H        2.5557862889   -1.7039115701    4.7934389568
H        1.0156508773   -4.3280242383    5.1213079672
H        0.7592652418   -6.1156003686    3.4371613463
H       -2.5112160010   -2.4060337088    3.5830225135
H        0.3769828460    0.3848005051    2.7531160553
H       -0.6754841295    0.4639383091    4.8794788692
29   

C        2.0063699686   -3.0248276045    0.8733593931
C        1.0450128279   -2.0111168206    0.8942173659
C        2.7820272029   -3.2688755828    2.0097936159
C        0.8505832594   -1.2533552802    2.0543783897
C        2.5945151187   -2.5017889317    3.1652949132
C       -0.2442760870   -3.9848647460    5.4237201889
C        0.1766206857   -5.2809724202    5.1145193439
C       -0.9503218888   -3.6940369407    3.1373814974
C        1.6157291648   -1.4970033359    3.2072990660
C       -0.7940634997   -3.1704015992    4.4291131327
C        0.0492777493   -5.7913987805    3.8164583612
C       -0.5290074690   -4.9894333508    2.8166182601
C        1.4060280251   -0.7056417971    4.4417799888
C        0.2770703249   -0.6177839738    5.1553639018
O       -1.9242424834   -0.8292604174    3.6172835188
O       -2.1261128986   -1.3937733660    5.9877065890
S       -1.2765517802   -1.4461422823    4.7877277856
Cl       0.6118690615   -7.4109456564    3.4650917303
Cl      -0.7181114285   -5.5755589214    1.1778135969
H        2.1497791898   -3.6198208859   -0.0218282138
H        0.4462858366   -1.8118622529    0.0123900516
H        3.5270498354   -4.0563540799    1.9965519667
H        0.1026725020   -0.4665824031    2.0538925405
H        3.1995570733   -2.7058915022    4.0414451745
H       -0.1343192415   -3.6063780975    6.4362247060
H        0.6128721288   -5.9034717117    5.8865741711
H       -1.3903824424   -3.0798011394    2.3568536418
H        2.2960855353   -0.2723775016    4.8865375617
H        0.2541431465   -0.0284436089    6.0591835369
29   

C        2.0212349826   -3.0172513793    0.8424419981
C        1.0532083488   -2.0116681943    0.8999066777
C        2.8065752849   -3.2889152671    1.9657654906
C        0.8611508048   -1.2905030969    2.0833506660
C        2.6207751743   -2.5589710255    3.1454460288
C       -0.2646246411   -3.9636541170    5.4400355956
C        0.1631311320   -5.2614841621    5.1478562557
C       -0.9603273310   -3.7022088224    3.1468579748
C        1.6336162947   -1.5642902764    3.2254498053
C       -0.8118513435   -3.1626857215    4.4330764655
C        0.0452871217   -5.7870117569    3.8549013093
C       -0.5312979356   -4.9990736029    2.8430066448
C        1.4256990953   -0.8172853644    4.4828525855
C        0.2570139186   -0.5880982184    5.0975551352
O       -1.9644140118   -0.8411276626    3.5958738011
O       -2.1302376633   -1.3623211262    5.9778121323
S       -1.2969987932   -1.4340557103    4.7674585603
Cl       0.6177813214   -7.4075293561    3.5246564243
Cl      -0.7077200124   -5.6038599024    1.2096181870
H        2.1631184302   -3.5836382513   -0.0713496051
H        0.4479348829   -1.7894135949    0.0280728586
H        3.5579609040   -4.0692984757    1.9234451866
H        0.1100762334   -0.5073017650    2.1074502806
H        3.2339876144   -2.7858450110    4.0102193317
H       -0.1612758285   -3.5729460074    6.4486199680
H        0.5979347381   -5.8733701286    5.9291614396
H       -1.3986160686   -3.0988697848    2.3568458071
H        2.3219135857   -0.4931866446    5.0019586890
H        0.2179783436    0.0719154045    5.9505878114
29   

C        2.0610595561   -3.0034477299    0.8253420290
C        1.0746769239   -2.0173917854    0.9022831200
C        2.8488865379   -3.2851419680    1.9444097732
C        0.8670962849   -1.3257326282    2.1004635686
C        2.6470455425   -2.5852651088    3.1396414715
C       -0.2822922803   -3.9382545018    5.4570276626
C        0.1558778628   -5.2336082619    5.1690490936
C       -0.9822987782   -3.6911557884    3.1634218254
C        1.6419007246   -1.6102842881    3.2391436890
C       -0.8359282842   -3.1451720835    4.4472801723
C        0.0422838792   -5.7643812402    3.8777937374
C       -0.5419156460   -4.9850541242    2.8636409764
C        1.4140846867   -0.9000541771    4.5103590949
C        0.2256777130   -0.5425296280    5.0241797964
O       -2.0450437182   -0.8514915004    3.6169241642
O       -2.1163593255   -1.3316732727    6.0126855705
S       -1.3288064744   -1.4169174453    4.7729807657
Cl       0.6297295267   -7.3805012246    3.5523241578
Cl      -0.7127269767   -5.5961553536    1.2320269058
H        2.2153305890   -3.5467326668   -0.1003868178
H        0.4672511784   -1.7873782624    0.0339551970
H        3.6147376069   -4.0503251006    1.8866058236
H        0.1008241190   -0.5578837990    2.1385900934
H        3.2625771519   -2.8211414085    4.0003257079
H       -0.1814905693   -3.5429169946    6.4641182423
H        0.5961949831   -5.8392686908    5.9521110136
H       -1.4261817437   -3.0945248935    2.3713888163
H        2.2959372537   -0.6622322861    5.0964086715
H        0.1802089369    0.1975376239    5.8084319808
29   

C        2.1149307135   -3.0155038995    0.8198042995
C        1.1062071064   -2.0525439057    0.8982932417
C        2.8961410728   -3.2949796833    1.9440708488
C        0.8706028837   -1.3810649091    2.1026445140
C        2.6657671481   -2.6159186994    3.1461860352
C       -0.3028816819   -3.9315391779    5.4567436108
C        0.1426982349   -5.2197214334    5.1488002038
C       -1.0404735628   -3.6677418743    3.1766138229
C        1.6397857365   -1.6628277964    3.2464335943
C       -0.8778171966   -3.1329941124    4.4632307111
C        0.0155463593   -5.7377884445    3.8536330192
C       -0.5917819379   -4.9539305538    2.8566630986
C        1.3773105948   -0.9788394459    4.5233383938
C        0.1853130969   -0.5072739618    4.9364785143
O       -2.1740538028   -0.8642242556    3.7031834486
O       -2.0699026735   -1.3217974529    6.1037880838
S       -1.3724491886   -1.4097516955    4.8113919302
Cl       0.6155779154   -7.3437267499    3.5018949021
Cl      -0.7795022467   -5.5489743282    1.2210116461
H        2.2912659060   -3.5429098149   -0.1111482091
H        0.5030337462   -1.8254770437    0.0262488273
H        3.6790071883   -4.0426346135    1.8848639511
H        0.0846031052   -0.6333423208    2.1426998939
H        3.2764147116   -2.8511013704    4.0105024270
H       -0.1904119964   -3.5452441670    6.4661976449
H        0.6003558775   -5.8292658738    5.9187977187
H       -1.5017577777   -3.0671919312    2.3975542121
H        2.2312394814   -0.8106226360    5.1715232836
H        0.1447290786    0.3202594643    5.6280812237
29   

C        2.2289992479   -3.0929009776    0.8621608621
C        1.1743497983   -2.1780303176    0.9016909746
C        3.0015852332   -3.3107541368    2.0058558323
C        0.8856989710   -1.4923256604    2.0863042669
C        2.7165510020   -2.6186425455    3.1887021159
C       -0.2779942830   -3.9366812212    5.4172930778
C        0.1663789577   -5.2043076263    5.0333202643
C       -1.1725333479   -3.6041215705    3.2029700743
C        1.6462131362   -1.7119363057    3.2490636939
C       -0.9297744574   -3.1130188682    4.4939506401
C       -0.0377910554   -5.6768680013    3.7308117070
C       -0.7244845132   -4.8694462298    2.8064330130
C        1.3243839411   -1.0170007913    4.5043598840
C        0.1282838398   -0.4729685229    4.8271813230
O       -2.3833391821   -0.8716133922    3.9708383967
O       -1.9011940009   -1.3498284396    6.3228676818
S       -1.4112127850   -1.4088173065    4.9367836589
Cl       0.5672575272   -7.2558299498    3.2797242126
Cl      -1.0091616253   -5.4081653215    1.1653904970
H        2.4473762691   -3.6307488999   -0.0537766826
H        0.5768810537   -2.0003096791    0.0144616372
H        3.8204248875   -4.0206969725    1.9766241640
H        0.0637178102   -0.7836803985    2.0978301087
H        3.3216003646   -2.8064686456    4.0683948742
H       -0.1032114756   -3.5840393379    6.4303495570
H        0.6848718208   -5.8320525772    5.7481670195
H       -1.6946267128   -2.9838313422    2.4798019950
H        2.1422112986   -0.8660850540    5.2015188744
H        0.0928307760    0.4616196835    5.3656485066
29   

C        2.6849922339   -3.3385087686    1.2094339007
C        1.4212780357   -2.7487681712    1.1347702962
C        3.4926566297   -3.1070478653    2.3256871499
C        0.9643162293   -1.9362229122    2.1777944331
C        3.0320539266   -2.2965262876    3.3698878721
C       -0.1434606186   -3.9483988705    4.9891988596
C        0.1564130899   -5.1467687045    4.3398586197
C       -1.7464095910   -3.4318062170    3.2622754767
C        1.7560300269   -1.7111318615    3.3170730880
C       -1.0793094125   -3.0654168718    4.4396055743
C       -0.4778024146   -5.4944858516    3.1417268116
C       -1.4494510618   -4.6312616071    2.6016812548
C        1.2673555624   -0.8976570741    4.4350585254
C        0.0007845896   -0.4420834512    4.6481393599
O       -2.6472561433   -0.8565550295    4.7473442871
O       -1.3143844126   -1.5565395578    6.6822390907
S       -1.3825302856   -1.4441575034    5.2166551981
Cl      -0.0455326458   -6.9888357050    2.3401438910
Cl      -2.2755785702   -5.0195675215    1.1086546161
H        3.0380108966   -3.9706806650    0.4021625792
H        0.7922856303   -2.9213313324    0.2685556748
H        4.4764397821   -3.5591247533    2.3835910774
H       -0.0156327744   -1.4798984485    2.0973686351
H        3.6708488743   -2.1350878962    4.2310628788
H        0.3679761333   -3.6914665484    5.9131430838
H        0.8991009980   -5.8141566597    4.7605348284
H       -2.4933854530   -2.7670178939    2.8369270473
H        2.0220663770   -0.5375063554    5.1269435941
H       -0.1636500453    0.6146969587    4.7919174757
29   

C        3.0109201158   -3.2105940263    1.1639742086
C        1.6670392007   -2.8331130015    1.1110229474
C        3.7884560450   -2.8518110721    2.2678948013
C        1.1031421399   -2.0987296128    2.1598250674
C        3.2204073717   -2.1240732511    3.3199069861
C       -0.2848743698   -3.9988524523    4.9700153687
C       -0.1022416259   -5.2149836354    4.3105840095
C       -1.9619992556   -3.3875448216    3.3475079863
C        1.8688635228   -1.7415967136    3.2828036226
C       -1.2023212530   -3.0630930677    4.4798678515
C       -0.8356472567   -5.5270554352    3.1602705391
C       -1.7835851156   -4.6052927669    2.6773472329
C        1.2769913305   -1.0028857039    4.3975854594
C       -0.0020855130   -0.5246148487    4.5430945662
O       -2.6422581667   -0.7899981163    4.9297290656
O       -1.1420695667   -1.5468993844    6.7283984565
S       -1.3654795570   -1.4326158144    5.2783610517
Cl      -0.5561352124   -7.0516367488    2.3476411712
Cl      -2.7309070562   -4.9478042241    1.2463223340
H        3.4489099073   -3.7779153407    0.3501672748
H        1.0592627151   -3.1087698427    0.2564130450
H        4.8332240900   -3.1388196360    2.3096833967
H        0.0606534859   -1.8098204647    2.0967676775
H        3.8399105159   -1.8588435120    4.1694883973
H        0.3000543434   -3.7726824805    5.8579295371
H        0.6233765545   -5.9261646178    4.6874478011
H       -2.6941195049   -2.6794643219    2.9684587043
H        1.9565470023   -0.7366579137    5.2009601752
H       -0.2193942976    0.5085683143    4.3215325735
29   

C        3.4358133285   -2.9936411687    1.0959760859
C        2.0429837064   -2.8864151026    1.0647280184
C        4.1453512363   -2.4936611465    2.1909487505
C        1.3627719454   -2.2730367738    2.1226808949
C        3.4624161903   -1.8925745934    3.2544706289
C       -0.4883351726   -4.1043409005    4.9877995000
C       -0.4713980002   -5.3497707437    4.3579984254
C       -2.1814274729   -3.3612994825    3.4383006220
C        2.0632571542   -1.7704198418    3.2319095748
C       -1.3336873421   -3.0918144669    4.5215977292
C       -1.2997153843   -5.6132423360    3.2608754216
C       -2.1699890512   -4.6080501905    2.7987261454
C        1.3546585436   -1.1353721192    4.3402092845
C        0.0527815110   -0.6746322947    4.4313703258
O       -2.5578688861   -0.7123631409    5.0276916339
O       -0.9799399998   -1.5572531590    6.7284472771
S       -1.3104751745   -1.4436780373    5.2988724073
Cl      -1.2353401212   -7.1830314364    2.4896109801
Cl      -3.2314319028   -4.8865513892    1.4352641889
H        3.9641392132   -3.4619624066    0.2728515677
H        1.4879845684   -3.2781025409    0.2196101406
H        5.2267266945   -2.5690358119    2.2152791262
H        0.2820031530   -2.1989508981    2.0821885329
H        4.0300552437   -1.5068984031    4.0942020680
H        0.1629881206   -3.9201076871    5.8386167469
H        0.1940402555   -6.1250747736    4.7195311986
H       -2.8591156284   -2.5913333453    3.0789107379
H        1.9295666107   -1.0280580793    5.2547013965
H       -0.2577300636    0.1249352194    3.7778432861
