23

C      1.69137   -1.24524   -0.25058
C      0.59863   -0.87175    0.52967
C      2.64181   -2.35144    1.68551
C      2.72343   -1.98552    0.34200
C      0.51867   -1.23595    1.87943
C      1.53811   -2.00280    2.48354
C      2.10603   -1.18587    4.81386
C      1.52457   -2.38230    3.93307
C      3.91627   -2.41165   -0.45282
C     -0.66219   -0.80058    2.70980
O      1.27572   -0.26734    5.05908
O      3.31209   -1.30250    5.13034
F      4.39552   -1.38989   -1.25369
F      3.60371   -3.44792   -1.32814
F     -1.59398   -1.83960    2.79982
F     -1.33836    0.24455    2.09962
H      1.75555   -0.95250   -1.29459
H     -0.19750   -0.27385    0.09722
H      3.45407   -2.90734    2.14889
H      0.51086   -2.61152    4.27020
H      2.15329   -3.26191    4.08817
H      4.74628   -2.75949    0.16791
H     -0.37773   -0.49452    3.71971
