39

C      0.30805    1.65379   -1.03198
C      1.58364   -4.04101   -4.78287
C      0.53892   -4.54781   -4.00432
C      1.93815   -2.69157   -4.66847
C     -0.14432   -3.70906   -3.11671
C      1.25305   -1.85852   -3.78095
C      3.69954    1.22477    0.66228
C      2.01581    1.92230    1.70711
C      0.20277   -2.35700   -2.99428
C     -2.14107    1.26953   -0.65881
C     -1.61794    1.91617    0.59066
C     -0.70216    1.00700   -0.22377
C     -0.49942   -1.45275   -2.00623
C      0.34819   -1.25652   -0.73669
C      0.63722   -0.19730    1.56534
C     -0.29658   -0.36972    0.33764
N      1.09754    2.16213   -1.72048
N      3.20535    2.33056    1.29478
N      2.89591    0.16717    0.66928
N      1.80595    0.63151    1.34577
O     -1.50053   -0.96446    0.84876
H      2.11480   -4.68951   -5.47485
H      0.25337   -5.59338   -4.09012
H      2.74692   -2.28849   -5.27282
H     -0.96080   -4.10922   -2.51801
H      1.53271   -0.81008   -3.69636
H      4.67258    1.19439    0.18985
H      1.28626    2.50630    2.25361
H     -2.82273    0.43557   -0.54710
H     -2.27561    1.88344   -1.54291
H     -1.40347    2.97963    0.58010
H     -1.96239    1.51369    1.53778
H     -0.68341   -0.48103   -2.47337
H     -1.47762   -1.86891   -1.74352
H      1.32323   -0.84160   -1.00166
H      0.56282   -2.23569   -0.28535
H      0.97502   -1.18168    1.90159
H      0.05389    0.25675    2.36852
H     -1.35867   -1.92221    0.90717
