29   

C        3.0827241155   -2.8230460833    0.6829478073
C        2.3939054238   -1.6758979811    0.2808719989
C        2.9286137343   -3.3034113014    1.9859821556
C        1.5485974184   -1.0142752172    1.1787210941
C        2.0933814909   -2.6329465334    2.8866738090
C       -0.1546993653   -4.4152269817    5.6952683188
C       -0.0343888235   -5.6825874669    5.1193915534
C       -1.3773452246   -3.6741559424    3.7522588467
C        1.3909331718   -1.4815425091    2.4939293585
C       -0.8159339928   -3.3935075135    5.0062951679
C       -0.5708753902   -5.9552455737    3.8544591417
C       -1.2553221801   -4.9384057694    3.1642762297
C        0.5091501165   -0.7873169015    3.4275816395
C        0.3878060838   -0.8933446838    4.8032310948
O       -2.2156547662   -1.0964425107    5.3491002499
O       -0.6331198766   -1.7127985979    7.1423886965
S       -0.9261336337   -1.7117408648    5.7003690675
Cl      -0.3789294200   -7.5501034827    3.1597200680
Cl      -1.9473250475   -5.2217788048    1.5815082028
H        3.7344038362   -3.3384891234   -0.0138760742
H        2.5153293501   -1.2972028634   -0.7278292210
H        3.4561773461   -4.1971721920    2.2993350651
H        1.0233537864   -0.1245184161    0.8492132079
H        1.9827757310   -3.0205971813    3.8929975382
H        0.2699715227   -4.2225119327    6.6777146461
H        0.4834296004   -6.4694788696    5.6551656746
H       -1.9099874812   -2.8957976525    3.2129270492
H       -0.1886960010   -0.0916079880    2.9720269370
H        1.2323963178   -0.6332337902    5.4210009848
29   

C        2.8596990923   -3.1015761359    0.8814344988
C        2.1751683555   -1.9853344657    0.3948052144
C        2.7982293653   -3.4133278409    2.2417271267
C        1.4246964547   -1.1875785419    1.2658425440
C        2.0538238251   -2.6100656762    3.1125706669
C       -0.0698762408   -4.3963766985    5.5533212010
C        0.1153499308   -5.6118316978    4.8891152976
C       -1.2402978198   -3.5477842828    3.6222321572
C        1.3501342919   -1.4909951026    2.6357523453
C       -0.7344812471   -3.3447161448    4.9145330030
C       -0.3581365026   -5.8019125149    3.5843967856
C       -1.0499878659   -4.7574627773    2.9451649697
C        0.5415697750   -0.6668667387    3.5329816962
C        0.3628656861   -0.7591282830    4.8918645275
O       -2.2265992908   -1.1346093284    5.4091471360
O       -0.6276489257   -1.7979909386    7.1587853823
S       -0.9112073709   -1.7173103522    5.7170195953
Cl      -0.0775405893   -7.3288571756    2.7767161529
Cl      -1.6614690771   -4.9361453849    1.3147307459
H        3.4369247970   -3.7231389202    0.2058860622
H        2.2234421561   -1.7384099874   -0.6598832039
H        3.3269480187   -4.2794185116    2.6232590896
H        0.8964594464   -0.3286719126    0.8667981516
H        2.0202393144   -2.8667040096    4.1648818796
H        0.3107824192   -4.2652104846    6.5635120731
H        0.6379211870   -6.4211959170    5.3851316776
H       -1.7745644965   -2.7463883295    3.1198056949
H        0.0611245355    0.1910378736    3.0731508955
H        0.9287895037   -0.1175469068    5.5490658130
29   

C        2.7154438066   -3.3359954779    1.1731040789
C        1.9411573764   -2.3387648801    0.5752634764
C        2.8085511681   -3.3994328891    2.5651627736
C        1.2544006576   -1.4126787398    1.3686216463
C        2.1206032087   -2.4735006426    3.3567504292
C        0.0416264624   -4.3521016937    5.2815762607
C        0.2467106652   -5.4961727917    4.5059499016
C       -1.2235946981   -3.3814232234    3.4719079550
C        1.3233561206   -1.4752888117    2.7703028578
C       -0.6771262344   -3.2720162506    4.7589834287
C       -0.2600631430   -5.5859935362    3.2031061560
C       -1.0111877589   -4.5170320198    2.6823700054
C        0.5569883417   -0.5315974344    3.5915111066
C        0.3097579057   -0.6052979790    4.9287815607
O       -2.2233627113   -1.1805609647    5.5271298107
O       -0.5127224513   -1.9185371254    7.1195524214
S       -0.8679583327   -1.7244330323    5.7045950168
Cl       0.0550530710   -7.0193752156    2.2500017010
Cl      -1.6649654007   -4.5709871549    1.0595274660
H        3.2430722630   -4.0572372994    0.5588903251
H        1.8680480372   -2.2862307511   -0.5052420402
H        3.4120592871   -4.1686510337    3.0332675853
H        0.6507081248   -0.6525697144    0.8852543570
H        2.2061811609   -2.5369439008    4.4355035359
H        0.4525145320   -4.2959933469    6.2867216980
H        0.8142059662   -6.3254771739    4.9109998574
H       -1.8018012397   -2.5593344958    3.0603328769
H        0.2168233147    0.3706472210    3.0930957503
H        0.5780493655    0.2251074305    5.5635392532
29   

C        2.6432831176   -3.4022400623    1.2840163088
C        1.8727597506   -2.4235269889    0.6516894826
C        2.7537270441   -3.4044270580    2.6762944122
C        1.2064487988   -1.4552064718    1.4112972322
C        2.0840437928   -2.4376939519    3.4342398695
C        0.0389101233   -4.3775851490    5.1719686240
C        0.2447673611   -5.5051070385    4.3732922930
C       -1.2285726168   -3.3700039231    3.3842355171
C        1.2882190430   -1.4597054698    2.8135285382
C       -0.6810007954   -3.2867342803    4.6726765436
C       -0.2624845095   -5.5682217737    3.0693722464
C       -1.0148507407   -4.4891722848    2.5712269365
C        0.5491190935   -0.4630326373    3.6015159598
C        0.1777163589   -0.5370859577    4.9009296734
O       -2.2790949049   -1.2971019813    5.5820482104
O       -0.4637555106   -1.9932517304    7.0565044756
S       -0.8888016516   -1.7705383933    5.6650201126
Cl       0.0527222135   -6.9819862025    2.0874722798
Cl      -1.6703672306   -4.5115251269    0.9484393595
H        3.1554429707   -4.1558482787    0.6961364542
H        1.7871530507   -2.4178521000   -0.4291634164
H        3.3565752177   -4.1574966287    3.1707131905
H        0.6066518423   -0.7087331651    0.9024836234
H        2.1840587400   -2.4507271684    4.5137580214
H        0.4483166597   -4.3435675308    6.1787393878
H        0.8123579701   -6.3422299597    4.7617863730
H       -1.8098996732   -2.5412796946    2.9912716182
H        0.3335927135    0.4735142279    3.0969234489
H        0.2611989767    0.3488732915    5.5116486198
29   

C        3.1715171199   -3.5259293979    1.9048683259
C        2.1910938411   -2.9878839886    1.0669680534
C        3.2702795732   -3.0870982813    3.2275444326
C        1.3109442378   -2.0132168651    1.5510772617
C        2.3831629056   -2.1206045319    3.7133651658
C        0.1563239445   -4.2815591030    4.5082877787
C        0.0304211770   -5.2856087286    3.5475623025
C       -1.7921479101   -3.1890867729    3.6010499034
C        1.3863902772   -1.5765131221    2.8832335265
C       -0.7415329982   -3.2083572067    4.5284794103
C       -0.9951529809   -5.2469956143    2.5965662023
C       -1.9236321905   -4.1897426247    2.6290807723
C        0.4412454624   -0.5694488990    3.3935683275
C        0.0186328725   -0.4506164304    4.6670491825
O       -1.7832012166   -1.4742111725    6.3469513480
O        0.5444968350   -2.1506469451    6.6808062517
S       -0.5093428163   -1.8299401467    5.7032337407
Cl      -1.0965650101   -6.5075743514    1.3868660010
Cl      -3.2270741314   -4.0935946957    1.4650869163
H        3.8560332041   -4.2781101102    1.5286865566
H        2.1109639685   -3.3273176268    0.0403552272
H        4.0359175561   -3.4924877475    3.8796345541
H        0.5522845976   -1.6113375589    0.8887822288
H        2.4788841223   -1.7874827389    4.7421399020
H        0.9708904043   -4.3222706542    5.2270950418
H        0.7444844675   -6.1002091139    3.5281470605
H       -2.5104766686   -2.3748096826    3.6175845655
H        0.0797367731    0.1642370018    2.6802607247
H       -0.3014099335    0.5103652164    5.0397741974
29   

C        3.1590955008   -3.5438588824    1.9680686277
C        2.1845309352   -3.0085919035    1.1215659830
C        3.2724765774   -3.0742520231    3.2790341437
C        1.3249236858   -2.0062862795    1.5856686987
C        2.4049604643   -2.0804912082    3.7450459436
C        0.1713999866   -4.2857987595    4.4348371509
C        0.0251407563   -5.2892640717    3.4765053917
C       -1.7944936808   -3.1914995810    3.5689504660
C        1.4135482124   -1.5401628956    2.9068730432
C       -0.7260885518   -3.2128795810    4.4756253453
C       -1.0204023827   -5.2500613077    2.5476467059
C       -1.9468628840   -4.1917801968    2.5995068573
C        0.4914195913   -0.4965766593    3.3940130478
C       -0.0667401049   -0.4280106557    4.6129763685
O       -1.7219399006   -1.5456244830    6.3764556223
O        0.6427251286   -2.1364090661    6.5677687361
S       -0.4748764917   -1.8412608197    5.6546260127
Cl      -1.1491900874   -6.5114968118    1.3414257475
Cl      -3.2748129668   -4.0949739975    1.4635879398
H        3.8282518382   -4.3171122285    1.6073188176
H        2.0931879633   -3.3711339791    0.1038308385
H        4.0344902175   -3.4762268206    3.9374817643
H        0.5708995963   -1.6055034313    0.9174204154
H        2.5138547902   -1.7211469185    4.7635357539
H        1.0004444803   -4.3275989909    5.1368041963
H        0.7381410720   -6.1042937769    3.4423749194
H       -2.5120337023   -2.3770929217    3.6007465675
H        0.2223702274    0.2798553939    2.6850914465
H       -0.5030884526    0.4984773993    4.9537389047
29   

C        3.1318027504   -3.5618444683    2.0053088180
C        2.1596962102   -3.0118881026    1.1653621961
C        3.2700521053   -3.0846994897    3.3113200034
C        1.3278430946   -1.9872627525    1.6311044652
C        2.4293052518   -2.0688047813    3.7791040569
C        0.1850086931   -4.2947090428    4.4208870394
C        0.0420530208   -5.3042319370    3.4683589788
C       -1.7893534068   -3.2166990624    3.5543169400
C        1.4412729649   -1.5138681593    2.9476182170
C       -0.7192569904   -3.2275663508    4.4591206091
C       -1.0064260646   -5.2764277135    2.5423790136
C       -1.9385986431   -4.2230608445    2.5907339961
C        0.5488647022   -0.4412576017    3.4356859218
C       -0.1477296657   -0.4286973687    4.5801756972
O       -1.7131710095   -1.5958980590    6.3889548532
O        0.6730236125   -2.1123767725    6.5163902431
S       -0.4769931785   -1.8506471920    5.6335721607
Cl      -1.1318540281   -6.5457771304    1.3441215778
Cl      -3.2704097040   -4.1402616817    1.4581801491
H        3.7798048624   -4.3522561909    1.6431605443
H        2.0487537706   -3.3800130137    0.1515849103
H        4.0305349804   -3.4979718455    3.9645000133
H        0.5754399652   -1.5739381215    0.9686689078
H        2.5566729704   -1.7027436631    4.7929974691
H        1.0159927007   -4.3277250114    5.1209708077
H        0.7596326469   -6.1153019779    3.4368231795
H       -2.5114191846   -2.4062580895    3.5832801393
H        0.3773709283    0.3850148723    2.7532778133
H       -0.6751517522    0.4640614964    4.8796957887
29   

C        2.0061777686   -3.0248400662    0.8733600174
C        1.0455144565   -2.0104597009    0.8939649693
C        2.7811881137   -3.2696078060    2.0100843739
C        0.8511837941   -1.2526810600    2.0541321295
C        2.5937360948   -2.5025558022    3.1656170063
C       -0.2444798024   -3.9849375672    5.4237601183
C        0.1764249483   -5.2810411382    5.1145529159
C       -0.9500299884   -3.6939108873    3.1372897710
C        1.6157291648   -1.4970033359    3.2072990660
C       -0.7940315899   -3.1703845352    4.4290977468
C        0.0493080295   -5.7913766199    3.8164334816
C       -0.5287365385   -4.9893157183    2.8165302211
C        1.4060280251   -0.7056417971    4.4417799888
C        0.2770703249   -0.6177839738    5.1553639018
O       -1.9241411462   -0.8292472285    3.6172330029
O       -2.1261593045   -1.3937562244    5.9876736199
S       -1.2765517802   -1.4461422823    4.7877277856
Cl       0.6118819376   -7.4109304624    3.4650723565
Cl      -0.7175736700   -5.5753392437    1.1776579189
H        2.1495268378   -3.6198228092   -0.0218442857
H        0.4472345781   -1.8107161153    0.0119448707
H        3.5256525053   -4.0576178230    1.9970447608
H        0.1037341365   -0.4654636201    2.0535396766
H        3.1982474534   -2.7072108802    4.0420048270
H       -0.1347133609   -3.6065233606    6.4363128058
H        0.6124974674   -5.9036114404    5.8866516874
H       -1.3898796915   -3.0795888887    2.3567100175
H        2.2959943817   -0.2717516882    4.8861099905
H        0.2540795606   -0.0282589452    6.0590611591
29   

C        2.0210317466   -3.0172587496    0.8424383187
C        1.0536524537   -2.0110337448    0.8996913190
C        2.8057814638   -3.2896159725    1.9660103679
C        0.8616978072   -1.2898564694    2.0831454476
C        2.6200502446   -2.5597069121    3.1457221648
C       -0.2648079573   -3.9637204457    5.4400651669
C        0.1629608067   -5.2615441725    5.1478767233
C       -0.9600440973   -3.7020842446    3.1467643172
C        1.6336162947   -1.5642902764    3.2254498053
C       -0.8118162510   -3.1626670893    4.4330562558
C        0.0453333421   -5.7869826779    3.8548652908
C       -0.5310271232   -4.9989536932    2.8429128511
C        1.4256990953   -0.8172853644    4.4828525855
C        0.2570139186   -0.5880982184    5.0975551352
O       -1.9643196321   -0.8411106679    3.5958277013
O       -2.1302824439   -1.3623082774    5.9777811050
S       -1.2969987932   -1.4340557103    4.7674585603
Cl       0.6178182504   -7.4075035807    3.5246217974
Cl      -0.7071913763   -5.6036385327    1.2094587071
H        2.1628495952   -3.5836338925   -0.0713707965
H        0.4487868705   -1.7883098103    0.0276942606
H        3.5566463246   -4.0705097890    1.9238596628
H        0.1110504798   -0.5062357295    2.1071721580
H        3.2327754495   -2.7871140333    4.0107009659
H       -0.1616399510   -3.5730824256    6.4486956558
H        0.5975977153   -5.8734974804    5.9292220260
H       -1.3981374360   -3.0986636743    2.3567053331
H        2.3219228692   -0.4927879787    5.0016937789
H        0.2178923766    0.0722390235    5.9503329102
29   

C        2.0608625795   -3.0034579578    0.8253360557
C        1.0750997559   -2.0167610020    0.9020866315
C        2.8481319443   -3.2858368043    1.9446269423
C        0.8676197718   -1.3250884107    2.1002777545
C        2.6463609273   -2.5859907028    3.1398871244
C       -0.2824589622   -3.9383232908    5.4570146464
C        0.1557286345   -5.2336652010    5.1690107629
C       -0.9820211154   -3.6910098591    3.1632931771
C        1.6419007246   -1.6102842881    3.2391436890
C       -0.8358899703   -3.1451467317    4.4472299063
C        0.0423445668   -5.7643340946    3.8776938014
C       -0.5416427627   -4.9849066438    2.8634950592
C        1.4140846867   -0.9000541771    4.5103590949
C        0.2256777130   -0.5425296280    5.0241797964
O       -2.0449876881   -0.8514564353    3.6169064352
O       -2.1163832422   -1.3316895639    6.0126720646
S       -1.3288064744   -1.4169174453    4.7729807657
Cl       0.6297877075   -7.3804508967    3.5522051481
Cl      -0.7122025203   -5.5958871302    1.2318093380
H        2.2150677722   -3.5467340828   -0.1004089879
H        0.4680644194   -1.7862781761    0.0336101764
H        3.6134877758   -4.0515270847    1.8869747398
H        0.1017681297   -0.5568102468    2.1383362259
H        3.2614316006   -2.8223956270    4.0007560047
H       -0.1818319039   -3.5430667760    6.4641550504
H        0.5958879430   -5.8393998099    5.9521041773
H       -1.4257215036   -3.0942905494    2.3712239860
H        2.2959679067   -0.6620497102    5.0962885473
H        0.1801190732    0.1979843795    5.8080040225
29   

C        2.1147559955   -3.0155254562    0.8197995312
C        1.1066435648   -2.0519049082    0.8981011632
C        2.8954174782   -3.2956892263    1.9442784136
C        0.8711316453   -1.3804052683    2.1024600689
C        2.6651068336   -2.6166496609    3.1464165051
C       -0.3030411755   -3.9316173795    5.4566672414
C        0.1425590920   -5.2197796232    5.1486731965
C       -1.0402011787   -3.6675574125    3.1764252232
C        1.6397857365   -1.6628277964    3.2464335943
C       -0.8777794408   -3.1329583970    4.4631327091
C        0.0156144156   -5.7377146601    3.8534328295
C       -0.5915084259   -4.9537361694    2.8564311779
C        1.3773105948   -0.9788394459    4.5233383938
C        0.1853130969   -0.5072739618    4.9364785143
O       -2.1740536367   -0.8641630846    3.7032138707
O       -2.0698892549   -1.3218605451    6.1038002558
S       -1.3724491886   -1.4097516955    4.8113919302
Cl       0.6156481247   -7.3436408611    3.5016443096
Cl      -0.7789786995   -5.5486243424    1.2206945880
H        2.2910302563   -3.5429294111   -0.1111656817
H        0.5038637759   -1.8243547105    0.0259105949
H        3.6778011996   -4.0438609377    1.8852188982
H        0.0855675680   -0.6322170120    2.1424287440
H        3.2753020468   -2.8523665682    4.0109069680
H       -0.1907433850   -3.5454243410    6.4661801624
H        0.6000632854   -5.8294130332    5.9186916994
H       -1.5013113107   -3.0669037171    2.3973423617
H        2.2312361992   -0.8106404185    5.1715322038
H        0.1446428992    0.3208043376    5.6274218619
29   

C        2.2288524767   -3.0929436646    0.8621616703
C        1.1747981851   -2.1773740156    0.9014796637
C        3.0009036277   -3.3115010171    2.0060846541
C        0.8862277108   -1.4916362543    2.0860944722
C        2.7159234158   -2.6193963911    3.1889467466
C       -0.2781667548   -3.9367662484    5.4171911134
C        0.1662371764   -5.2043609263    5.0331525858
C       -1.1722400345   -3.6038924298    3.2027248810
C        1.6462131362   -1.7119363057    3.2490636939
C       -0.9297380807   -3.1129703554    4.4938209705
C       -0.0377003835   -5.6767573320    3.7305482051
C       -0.7241751231   -4.8691941315    2.8061289449
C        1.3243839411   -1.0170007913    4.5043598840
C        0.1282838398   -0.4729685229    4.8271813230
O       -2.3833662859   -0.8715424858    3.9709052771
O       -1.9011515687   -1.3499302388    6.3228877069
S       -1.4112127850   -1.4088173065    4.9367836589
Cl       0.5673647967   -7.2556935875    3.2793939446
Cl      -1.0085677510   -5.4077163303    1.1649727935
H        2.4471756407   -3.6308006069   -0.0537834555
H        0.5777225584   -1.9991456970    0.0140875028
H        3.8192804937   -4.0219842889    1.9770175638
H        0.0646877010   -0.7824769271    2.0974912904
H        3.3205343966   -2.8077723692    4.0688233827
H       -0.1035722681   -3.5842501520    6.4303246981
H        0.6845662190   -5.8322100905    5.7480268752
H       -1.6941530114   -2.9834845393    2.4795278750
H        2.1421416439   -0.8662855301    5.2016437177
H        0.0926997890    0.4622034892    5.3646214957
29   

C        2.6849049014   -3.3385508954    1.2094361996
C        1.4214325794   -2.7483188000    1.1345378206
C        3.4923678383   -3.1075771526    2.3259365039
C        0.9645166860   -1.9357453022    2.1775612381
C        3.0317995745   -2.2970531503    3.3701494923
C       -0.1435069255   -3.9484102907    4.9891438788
C        0.1564052850   -5.1467422398    4.3397524514
C       -1.7462218779   -3.4316299866    3.2620607544
C        1.7560300269   -1.7111318615    3.3170730880
C       -1.0792624076   -3.0653580590    4.4395049915
C       -0.4776807393   -5.4943514998    3.1415211122
C       -1.4492309612   -4.6310514727    2.6014191008
C        1.2673555624   -0.8976570741    4.4350585254
C        0.0007845896   -0.4420834512    4.6481393599
O       -2.6472570648   -0.8565404444    4.7473629638
O       -1.3143635185   -1.5566380359    6.6822312217
S       -1.3825302856   -1.4441575034    5.2166551981
Cl      -0.0453779080   -6.9886660792    2.3398902102
Cl      -2.2752046407   -5.0192285659    1.1082739102
H        3.0378911623   -3.9707345565    0.4021599010
H        0.7925896398   -2.9205327215    0.2681453968
H        4.4759661420   -3.5600329319    2.3840214019
H       -0.0152594567   -1.4790728970    2.0969831840
H        3.6704276340   -2.1359942977    4.2315193199
H        0.3678241299   -3.6915623638    5.9131703746
H        0.8990182325   -5.8141869868    4.7604706537
H       -2.4931231859   -2.7667848526    2.8366719818
H        2.0219538529   -0.5379329175    5.1272876515
H       -0.1640370988    0.6148752066    4.7901341968
29   

C        3.0109102536   -3.2106044195    1.1639777330
C        1.6670844682   -2.8329399215    1.1109323575
C        3.7883953284   -2.8520036000    2.2679931903
C        1.1031929884   -2.0985475902    2.1597315774
C        3.2203489794   -2.1242670540    3.3200071314
C       -0.2848487366   -3.9988430780    4.9700112664
C       -0.1021928305   -5.2149659861    4.3105707146
C       -1.9619152162   -3.3875148891    3.3474518991
C        1.8688635228   -1.7415967136    3.2828036226
C       -1.2022781609   -3.0630771023    4.4798432875
C       -0.8355589742   -5.5270238845    3.1602282536
C       -1.7834792558   -4.6052548844    2.6772831792
C        1.2769913305   -1.0028857039    4.3975854594
C       -0.0020855130   -0.5246148487    4.5430945662
O       -2.6422636479   -0.7900313978    4.9296855170
O       -1.1420887108   -1.5469488602    6.7283977499
S       -1.3654795570   -1.4326158144    5.2783610517
Cl      -0.5560236306   -7.0515977775    2.3475929974
Cl      -2.7307572675   -4.9477510675    1.2462254820
H        3.4488971119   -3.7779286715    0.3501711879
H        1.0593468158   -3.1084658391    0.2562526136
H        4.8331225027   -3.1391506643    2.3098530966
H        0.0607433104   -1.8095112489    2.0966068963
H        3.8398118925   -1.8591736191    4.1696606023
H        0.3000444865   -3.7726868541    5.8579523095
H        0.6234100086   -5.9261532392    4.6874521888
H       -2.6940277337   -2.6794341804    2.9683887135
H        1.9562846096   -0.7375183530    5.2014663411
H       -0.2199929825    0.5079100604    4.3190806149
29   

C        3.4358107293   -2.9936353744    1.0959720371
C        2.0429110912   -2.8871931671    1.0651303724
C        4.1454216942   -2.4928677662    2.1905383047
C        1.3626957485   -2.2738375599    2.1230937575
C        3.4624942690   -1.8917590213    3.2540526246
C       -0.4883856083   -4.1043452107    4.9877543927
C       -0.4714793427   -5.3497708211    4.3579459633
C       -2.1815406902   -3.3612852485    3.4383316224
C        2.0632571542   -1.7704198418    3.2319095748
C       -1.3337516000   -3.0918115998    4.5215928904
C       -1.2998418016   -5.6132311430    3.2608547954
C       -2.1701315538   -4.6080325242    2.7987480476
C        1.3546585436   -1.1353721192    4.3402092845
C        0.0527815110   -0.6746322947    4.4313703258
O       -2.5578520127   -0.7123087558    5.0277606521
O       -0.9799028502   -1.5572673319    6.7284376235
S       -1.3104751745   -1.4436780373    5.2988724073
Cl      -1.2354980391   -7.1830131931    2.4895737082
Cl      -3.2316244938   -4.8865198971    1.4353227287
H        3.9641338594   -3.4619568463    0.2728459689
H        1.4878584226   -3.2794649302    0.2203184225
H        5.2268453493   -2.5676511649    2.2145605176
H        0.2818754150   -2.2003445172    2.0829134327
H        4.0301869633   -1.5054702245    4.0934663362
H        0.1629772256   -3.9201178254    5.8385430893
H        0.1939722071   -6.1250784044    4.7194472232
H       -2.8592337916   -2.5913090451    3.0789718131
H        1.9297833403   -1.0273809342    5.2544856444
H       -0.2573005592    0.1261617492    3.7791386443
