24   

C       -0.6266502534    1.2028809618   -0.0577434224
C        0.5635715259    0.6605188954    0.3739303750
C        1.5239331323    1.4391078584    1.2314323659
C       -1.5719742641    0.4568073858   -0.9496913977
C       -0.1021151077   -1.5102842377   -0.6668517069
C        3.6711414087    1.7676148461    2.4032453624
C        3.6130881927    0.3968788507    0.3270211141
N        0.8921958352   -0.6570094359   -0.0218197457
N       -0.8539483401   -0.6587720396   -1.5823057023
N        2.8787597480    1.0942235272    1.3782649954
O        1.1567470494    2.4617990752    1.8123676603
H       -0.8634848530    2.2256446961    0.2111902915
H       -2.4086410649    0.0769281729   -0.3542687958
H       -1.9692510734    1.1316262832   -1.7149569269
H        0.3943133674   -2.3101964325   -1.2249865936
H       -0.7686140169   -1.9526108644    0.0815566024
H        4.6112731368    1.2340834311    2.5750959813
H        3.1254835619    1.7894596908    3.3525182881
H        3.8944051033    2.7945128768    2.0967119378
H        4.6047214816    0.8432752222    0.2010447577
H        3.1076078006    0.4924984229   -0.6395132209
H        3.7341834373   -0.6611191539    0.5771703521
H        1.7502045602   -1.0796824166    0.3129339322
H       -1.4588530337   -1.2016573600   -2.1891490120
24   

C       -0.5837062312    1.1872411047   -0.0963864667
C        0.5506660577    0.6066449144    0.4227074343
C        1.4836639374    1.3522963927    1.3368038258
C       -1.5004125477    0.4544274562   -1.0285297517
C       -0.1435238285   -1.5662041874   -0.5864168331
C        3.6792718596    1.7440066272    2.3984602198
C        3.5597473370    0.4759728693    0.2530450014
N        0.8437611481   -0.7366878973    0.0991048189
N       -0.7935591505   -0.7127986642   -1.5762689592
N        2.8633409798    1.0953341162    1.3769329539
O        1.0593535571    2.2477287168    2.0704236607
H       -0.7932768815    2.2242336717    0.1379843316
H       -2.3919497310    0.1318565515   -0.4808151366
H       -1.8135855138    1.1200996714   -1.8394628627
H        0.3516742405   -2.4050533728   -1.0853425259
H       -0.8777988125   -1.9541224534    0.1279834308
H        4.6608184870    1.2647088757    2.4681729838
H        3.1998816405    1.6598230369    3.3794563131
H        3.8163593458    2.8030096455    2.1577903141
H        4.5067401546    0.9925127451    0.0667526513
H        2.9764934387    0.5554984745   -0.6701503507
H        3.7678654857   -0.5773509990    0.4623107447
H        1.6624177268   -1.1813395646    0.4995115573
H       -1.3819599339   -1.2493976876   -2.2046053734
24   

C       -0.5322689854    1.1806805199   -0.1305680959
C        0.5351287807    0.5561018168    0.4694374941
C        1.4516438287    1.2601362917    1.4344762790
C       -1.4249231953    0.4668981670   -1.1002477115
C       -0.2018481399   -1.6070999933   -0.5226982525
C        3.6835138378    1.7175068940    2.3953839202
C        3.4983037770    0.5576454376    0.1876912009
N        0.7783466581   -0.8100112868    0.2099143187
N       -0.7435633287   -0.7482226697   -1.5725872614
N        2.8433800053    1.1009215898    1.3744506293
O        0.9954407656    2.0015302817    2.3081198512
H       -0.7030590969    2.2315092203    0.0700670008
H       -2.3635225694    0.2026834517   -0.6021032608
H       -1.6538672936    1.1236003087   -1.9458918607
H        0.2827561904   -2.4808585703   -0.9693898171
H       -0.9995857764   -1.9417732792    0.1493224073
H        4.6861293506    1.2786065729    2.3833714561
H        3.2616063589    1.5493750672    3.3918177002
H        3.7645274398    2.7946332476    2.2185996865
H        4.3952362604    1.1399464803   -0.0459817035
H        2.8497264587    0.6170813152   -0.6923321052
H        3.7854298876   -0.4850954369    0.3517801721
H        1.5503663317   -1.2806969816    0.6698518049
H       -1.3170987489   -1.2725910011   -2.2246023689
24   

C       -0.3973504819    1.1799696024   -0.0983907849
C        0.5973904712    0.5102105026    0.5713560688
C        1.5252271129    1.1715821667    1.5594084122
C       -1.2848845571    0.4847779238   -1.0862919248
C       -0.2107365396   -1.6371639034   -0.3898792407
C        3.7978065570    1.7154787950    2.3807184038
C        3.5029081716    0.6642221510    0.1268932674
N        0.7736027556   -0.8744890383    0.3732151711
N       -0.6512673498   -0.7807178876   -1.4892361351
N        2.9135208153    1.1299605255    1.3793669147
O        1.0793556222    1.7413016975    2.5588715580
H       -0.5108549528    2.2455158390    0.0588796274
H       -2.2579684401    0.2880978805   -0.6243498731
H       -1.4388819134    1.1247515816   -1.9612142687
H        0.2467854700   -2.5481654707   -0.7881282827
H       -1.0587800855   -1.9093464292    0.2478715724
H        4.7995305156    1.2809024282    2.3053264989
H        3.4281781002    1.5128705387    3.3913058574
H        3.8674005550    2.7980779628    2.2361616056
H        4.3447771816    1.3052385898   -0.1530846205
H        2.7864573415    0.7082371999   -0.6996392365
H        3.8591980622   -0.3647623479    0.2323940170
H        1.4936354055   -1.3719542707    0.8868172487
H       -1.2214771028   -1.2928343680   -2.1538334230
24   

C       -0.3433198711    1.1944514613   -0.1754034194
C        0.5423535814    0.4744974475    0.5876943028
C        1.4425935155    1.0764774920    1.6407896329
C       -1.1877474151    0.5324185485   -1.2222176728
C       -0.2965350299   -1.6374325678   -0.4152787123
C        3.6977990758    1.7447590903    2.4393462775
C        3.3985934412    0.8547441642    0.1166269850
N        0.6595581958   -0.9197631946    0.4234904522
N       -0.5961481298   -0.7731919332   -1.5564048784
N        2.8178268495    1.1988965753    1.4115541216
O        0.9821644344    1.4307930642    2.7300846279
H       -0.3992512378    2.2682650049   -0.0479476352
H       -2.2037593037    0.3972316439   -0.8368286073
H       -1.2361609284    1.1645157137   -2.1148646153
H        0.1426635305   -2.5767819868   -0.7654214429
H       -1.2090545916   -1.8556500437    0.1501274376
H        4.6843635471    1.2746067179    2.3799103143
H        3.3066599258    1.5502614508    3.4431504285
H        3.8083090674    2.8252394285    2.3056656500
H        4.2101086405    1.5471315102   -0.1281854954
H        2.6642627573    0.9302744095   -0.6915595956
H        3.7956404179   -0.1646681323    0.1378603793
H        1.2884587607   -1.4485571801    1.0194397982
H       -1.1378627492   -1.2636011169   -2.2600874090
24   

C       -0.2040952870    1.2081129125   -0.2401006191
C        0.5522816298    0.4229041400    0.5941232054
C        1.4628698054    0.9444369718    1.6808367798
C       -1.0528596383    0.6019961447   -1.3168782145
C       -0.4132942054   -1.6233784278   -0.4206804599
C        3.6836176004    1.7564210187    2.4460489307
C        3.3399067693    1.0800666695    0.0567830911
N        0.5570680834   -0.9771255633    0.4585257479
N       -0.5713648619   -0.7613561981   -1.5923397860
N        2.7981004097    1.2529646473    1.4013436321
O        1.0346027847    1.0868141815    2.8307007552
H       -0.1551771791    2.2853494697   -0.1441126834
H       -2.0952515206    0.5714809686   -0.9825685062
H       -0.9967547085    1.2132693082   -2.2234027288
H       -0.0432777096   -2.6060357823   -0.7294936720
H       -1.3711330295   -1.7460227926    0.0965545943
H        4.2644597924    0.9346592680    2.8758086943
H        3.1206834498    2.2470297417    3.2465239521
H        4.3701225207    2.5011504887    2.0312979854
H        3.2136363357    1.9990258353   -0.5238385154
H        2.8529667391    0.2557436480   -0.4735698051
H        4.4059219888    0.8374134256    0.1078650493
H        1.0676036987   -1.5433997936    1.1293559823
H       -1.1196767952   -1.2167184070   -2.3142267435
24   

C       -0.0344709343    1.1982773311   -0.2747240210
C        0.6058837515    0.3650198598    0.6095581290
C        1.5434420256    0.8131615410    1.7034987796
C       -0.9245247385    0.6503371525   -1.3493825810
C       -0.5491454612   -1.5987748946   -0.3633449007
C        3.6994742538    1.7720476335    2.4647463312
C        3.3263063094    1.2684520459    0.0350056138
N        0.4682066654   -1.0294209141    0.5154659498
N       -0.5929216176   -0.7668526759   -1.5666466564
N        2.8190952984    1.2983708156    1.4029828529
O        1.1720612201    0.7613147259    2.8814887559
H        0.1317246776    2.2663204850   -0.2155499864
H       -1.9698953185    0.7469381135   -1.0374545870
H       -0.7846937655    1.2181474939   -2.2748641934
H       -0.2809881896   -2.6255458985   -0.6311587716
H       -1.5238505345   -1.6004337155    0.1366613287
H        4.2935341706    0.9427652831    2.8608437692
H        3.1242145881    2.2197812245    3.2817208138
H        4.3740666933    2.5440029259    2.0813758017
H        3.1084459132    2.2130658034   -0.4725296334
H        2.8857145410    0.4457153521   -0.5376637056
H        4.4090854174    1.1082852612    0.0374340613
H        0.8677645832   -1.6114737474    1.2463488499
H       -1.1754894194   -1.1862673213   -2.2834270924
24   

C        0.1730805964    1.0860929035   -0.3130460881
C        0.7567213743    0.2566022718    0.6147046717
C        1.7321722618    0.6823427529    1.6804015370
C       -0.7863990897    0.5533360753   -1.3346038948
C       -0.5964162715   -1.6498518610   -0.2000739906
C        3.8049110791    1.8118375973    2.4265316114
C        3.3852416889    1.4351362660   -0.0171613189
N        0.4925131938   -1.1199295279    0.6146648935
N       -0.5971426374   -0.9005028805   -1.4573251304
N        2.9265743433    1.3360475081    1.3642071567
O        1.4479138240    0.4733786721    2.8664909325
H        0.4238469375    2.1389862331   -0.3216240892
H       -1.8111283569    0.7713558009   -1.0153803876
H       -0.6129143429    1.0405060336   -2.2994687760
H       -0.4308506820   -2.7128726267   -0.4012012035
H       -1.5528137755   -1.5267646405    0.3197598122
H        4.4605574760    1.0038793727    2.7655533022
H        3.2224273936    2.1794986644    3.2777688780
H        4.4189460591    2.6439141374    2.0679362622
H        3.0759888276    2.3892030195   -0.4546017496
H        2.9909753963    0.6160030208   -0.6276113801
H        4.4767763573    1.3633132917   -0.0579507450
H        0.8302195850   -1.6689175133    1.4014293470
H       -1.2352188095   -1.3110827210   -2.1305654605
24   

C        0.2720962454    1.0026870029   -0.4147270957
C        0.7942941743    0.1715959400    0.5497278587
C        1.7845463329    0.5591953379    1.6139188715
C       -0.7394050573    0.5062054812   -1.4045738012
C       -0.7525068024   -1.6345663576   -0.1412004175
C        3.7720248127    1.7803094112    2.4345402232
C        3.3636546927    1.5665819491   -0.0274703104
N        0.3964612129   -1.1677687956    0.6274483651
N       -0.6987711679   -0.9636333584   -1.4405931777
N        2.9141319959    1.3380771889    1.3412121128
O        1.5726753823    0.1933326314    2.7781529287
H        0.5946284417    2.0339252983   -0.4706717654
H       -1.7359138186    0.8448232319   -1.1016120881
H       -0.5220439453    0.9145320005   -2.3967445953
H       -0.6954667708   -2.7187384319   -0.2796679927
H       -1.6833885964   -1.3864756775    0.3803050929
H        4.4641626903    0.9819883231    2.7197000965
H        3.1726413778    2.0617212148    3.3067607677
H        4.3470910468    2.6621376313    2.1350624428
H        2.9890091564    2.5253223071   -0.3985338987
H        3.0284911605    0.7648545518   -0.6937362345
H        4.4575875086    1.5754221160   -0.0684117378
H        0.6846317392   -1.6882115465    1.4537186354
H       -1.3825918422   -1.3484491391   -2.0833699273
24   

C        0.3791194808    0.9029118880   -0.4712702789
C        0.8691989193    0.0916738350    0.5288933241
C        1.8772197939    0.4674955574    1.5808858598
C       -0.6831487676    0.4231495689   -1.4160871065
C       -0.8406596860   -1.6197820381   -0.0106160929
C        3.7874517866    1.7632155593    2.4596530283
C        3.3736122127    1.6829044542   -0.0045054917
N        0.3620997606   -1.1978726697    0.6982819981
N       -0.7646048362   -1.0435440252   -1.3529301122
N        2.9386083085    1.3507108708    1.3472758730
O        1.7663912967   -0.0343766185    2.7085851454
H        0.7470275076    1.9129172893   -0.5864793081
H       -1.6443730447    0.8627059360   -1.1292583221
H       -0.4473260997    0.7437582052   -2.4358821311
H       -0.8746673501   -2.7118151298   -0.0751188979
H       -1.7344161566   -1.2610899483    0.5114543255
H        4.5073983232    0.9746670530    2.6999207914
H        3.1815644896    1.9761045349    3.3467249003
H        4.3313260783    2.6788132735    2.2068469047
H        2.9471928684    2.6396421590   -0.3208157601
H        3.0861098957    0.9016429299   -0.7156690394
H        4.4653161953    1.7563045835   -0.0415362701
H        0.6459252556   -1.6896085568    1.5447039876
H       -1.4912384581   -1.4131536506   -1.9563738061
24   

C        0.4532180363    0.8165096832   -0.5653865315
C        0.9112457098    0.0260376992    0.4688982998
C        1.9394109239    0.3808451097    1.5114207950
C       -0.6527035128    0.3597733652   -1.4719628408
C       -0.9458455769   -1.5710734605    0.0604660507
C        3.7736802991    1.7226953234    2.4734474126
C        3.3468054059    1.8109941482    0.0178510712
N        0.3015050358   -1.2019926460    0.7185738881
N       -0.8497269106   -1.0882844154   -1.3159395251
N        2.9311927335    1.3568703448    1.3392913749
O        1.9386489514   -0.2541581726    2.5762169747
H        0.8626101335    1.8000386587   -0.7405799622
H       -1.5737633309    0.8914268630   -1.2105324364
H       -0.4024206213    0.5945561036   -2.5115092251
H       -1.0672153803   -2.6587607911    0.0676316480
H       -1.7970115113   -1.1089422270    0.5722597002
H        4.5360068598    0.9557178621    2.6426887529
H        3.1692092866    1.8313972499    3.3801690698
H        4.2668306444    2.6826848910    2.2910549081
H        2.8495022201    2.7510190772   -0.2397922764
H        3.1293435191    1.0556666949   -0.7442903973
H        4.4293128838    1.9736802756   -0.0019745171
H        0.6013664602   -1.6923108305    1.5612627195
H       -1.6133550414   -1.4358988474   -1.8857657012
24   

C        0.5464223824    0.7128881358   -0.6609313760
C        0.9538934336   -0.0206939428    0.4376296436
C        2.0205366897    0.3049394845    1.4564972443
C       -0.6078162481    0.2737076742   -1.5156800065
C       -1.0449467323   -1.4822194939    0.1773859205
C        3.8088559522    1.6468101068    2.5005198221
C        3.2934402229    1.9810769183    0.0889480020
N        0.2337707767   -1.1556070116    0.7952473967
N       -0.9224392022   -1.1334428081   -1.2356410038
N        2.9487715345    1.3537989507    1.3570810048
O        2.1246653086   -0.4397804835    2.4431407386
H        1.0232369915    1.6352697091   -0.9480440578
H       -1.4777912495    0.9009714875   -1.2944105691
H       -0.3545074148    0.3971099424   -2.5735514579
H       -1.2518440976   -2.5517461980    0.2830240678
H       -1.8518416178   -0.9098852913    0.6478029429
H        4.6154353857    0.9097693292    2.5668321651
H        3.2302110879    1.6271470341    3.4301005803
H        4.2452555295    2.6463635917    2.4084793502
H        2.6558674253    2.8510643836   -0.0959083972
H        3.2069351191    1.2649559122   -0.7346333071
H        4.3356568284    2.3162313760    0.1016220960
H        0.5578979097   -1.6569459374    1.6229719385
H       -1.7180898080   -1.4641408637   -1.7706236407
24   

C        0.8334847733    0.5620133691   -0.6733172943
C        0.9097584525    0.2860574384    0.6754731253
C        2.1048905462    0.4530629003    1.5801136107
C       -0.3632030147    0.1558831793   -1.4783035843
C       -1.3284543546   -0.8132770185    0.5884062916
C        4.3254408490    1.3301244793    2.2064852324
C        2.9869285159    2.5088658933    0.4602530271
N       -0.1279671115   -0.3936210564    1.3070508014
N       -0.9752740259   -1.0044054763   -0.8180319448
N        3.1437012684    1.3659128311    1.3510141720
O        2.1582302384   -0.2372509251    2.6070543357
H        1.6854425536    0.9580953584   -1.2059301289
H       -1.0767553819    0.9843330251   -1.5322659931
H       -0.0528850128   -0.1095822411   -2.4943181421
H       -1.7005440172   -1.7547060532    1.0049781422
H       -2.1088172093   -0.0511796120    0.6845251757
H        5.1625435294    1.8462103700    1.7259107966
H        4.6377494967    0.2957502931    2.3853332724
H        4.1133463730    1.8099257282    3.1670596656
H        1.9342148088    2.7951203917    0.3695091002
H        3.3956567271    2.2838003159   -0.5295177063
H        3.5154649731    3.3778077193    0.8655841251
H        0.1235029039   -0.8489730679    2.1852825124
H       -1.7502535170   -1.3891921139   -1.3474261417
24   

C        0.8935941537    0.4489224405   -0.7228436631
C        0.9511232026    0.2225589343    0.6341303995
C        2.1611559364    0.3669378195    1.5172742123
C       -0.3310867421    0.0995248875   -1.5118654404
C       -1.3788166667   -0.6606568773    0.6061638132
C        4.3376968900    1.3459886558    2.1538837126
C        2.8691959114    2.5425452949    0.5200266055
N       -0.1422757083   -0.3260517206    1.3089877850
N       -1.0479762558   -0.9590236830   -0.7875633560
N        3.1267160863    1.3653764564    1.3407925170
O        2.3074322175   -0.4429251178    2.4420687848
H        1.7780775682    0.7673724589   -1.2572802806
H       -0.9679720707    0.9827318482   -1.6240910560
H       -0.0411280250   -0.2550266082   -2.5065139675
H       -1.8426158429   -1.5375924025    1.0688684025
H       -2.0799417597    0.1786952194    0.6599609461
H        5.1258564702    1.9399348432    1.6805454338
H        4.7155712014    0.3231919358    2.2563605102
H        4.1327842115    1.7521140749    3.1492921995
H        1.7961447806    2.7477302062    0.4498629399
H        3.2814643829    2.4075897617   -0.4845064137
H        3.3308078894    3.4257627130    0.9733102036
H        0.0849797995   -0.8132431275    2.1757267859
H       -1.8547589946   -1.3018663563   -1.2979777544
24   

C        0.9797507872    0.3174164942   -0.7805951956
C        1.0312674614    0.1366857259    0.5817427391
C        2.2574305897    0.2582687243    1.4441232181
C       -0.2747923964    0.0331957577   -1.5485838099
C       -1.3723110545   -0.5107315457    0.6139720830
C        4.3775263290    1.3338324047    2.1237052001
C        2.7952409411    2.5384552982    0.5995584664
N       -0.1018706154   -0.2755722777    1.2970648927
N       -1.0852864599   -0.9098370585   -0.7644686429
N        3.1454335235    1.3342140687    1.3433441975
O        2.4973590552   -0.6518936649    2.2471732873
H        1.8839909281    0.5607819299   -1.3229211558
H       -0.8283626654    0.9626991944   -1.7153199308
H       -0.0218582866   -0.4050770451   -2.5197068856
H       -1.9223974729   -1.3104778391    1.1199377986
H       -1.9810507909    0.3993276967    0.6288779070
H        5.1224318535    1.9885200938    1.6605830934
H        4.8083380473    0.3279166028    2.1662780583
H        4.1806189391    1.6808252424    3.1427684844
H        1.7097111698    2.6714060657    0.5497040716
H        3.2008324232    2.4925262519   -0.4156493194
H        3.2000070814    3.4226000918    1.1025133113
H        0.0876816710   -0.7793432161    2.1621957837
H       -1.9251030097   -1.2006813363   -1.2534785128
24   

C        1.0326979500    0.1739988431   -0.8623511764
C        1.0902957799    0.0597069192    0.5055315142
C        2.3387490393    0.1581812290    1.3406767982
C       -0.2528331488   -0.0441049210   -1.6001943808
C       -1.3641459640   -0.3375682967    0.6055268493
C        4.3864575277    1.3247524022    2.0963519847
C        2.6942007836    2.5325037451    0.6936660841
N       -0.0654517282   -0.2028933676    1.2626962066
N       -1.1415945297   -0.8479016394   -0.7478548419
N        3.1395250740    1.3037762095    1.3404766983
O        2.6758889284   -0.8240829976    2.0115199263
H        1.9465388726    0.3253893250   -1.4223880944
H       -0.7175702798    0.9200622015   -1.8296604918
H       -0.0544185961   -0.5709131814   -2.5394728886
H       -1.9903427138   -1.0408175271    1.1636407995
H       -1.8704035546    0.6327232869    0.5698912426
H        5.0809769586    2.0521600539    1.6645310038
H        4.8774948678    0.3464893167    2.0646329910
H        4.1918964850    1.5919730483    3.1396017064
H        1.6016119418    2.5868720607    0.6515943621
H        3.0961489147    2.5960309442   -0.3220496768
H        3.0331524086    3.4026402026    1.2649307666
H        0.0811677598   -0.6942487763    2.1419720870
H       -2.0135734838   -1.0835154326   -1.2095964335
24   

C        1.1136451125    0.0014404660   -0.9282065658
C        1.2061771978   -0.0042587318    0.4414424750
C        2.4897199671    0.0856591881    1.2286670509
C       -0.2072578343   -0.1758955550   -1.6125720195
C       -1.2684329793   -0.1804055281    0.6379345128
C        4.4378171735    1.3493109669    2.0934386070
C        2.6200310327    2.5371458479    0.8384354510
N        0.0569163519   -0.1177305528    1.2513642886
N       -1.1346533275   -0.8210352585   -0.6706708587
N        3.1788055496    1.2945581755    1.3593369191
O        2.9405758024   -0.9359865549    1.7568533046
H        2.0185199922    0.0445191772   -1.5208629362
H       -0.5982544582    0.7991540559   -1.9204556249
H       -0.0805768331   -0.7998708030   -2.5034737626
H       -1.9406195823   -0.7714170418    1.2680261691
H       -1.6822526182    0.8277364643    0.5306358243
H        5.0696225941    2.1535709281    1.7036859701
H        4.9971782243    0.4144105759    1.9839694700
H        4.2476545783    1.5273744784    3.1563136306
H        1.5274632315    2.4961258624    0.7865062238
H        3.0172316125    2.7435321233   -0.1600318877
H        2.8740372483    3.3702865943    1.5014098060
H        0.1820309943   -0.5584252167    2.1593072275
H       -2.0377882816   -1.0163261267   -1.0893934599
24   

C        1.1200977339   -0.1969916936   -1.0062756234
C        1.2612317145   -0.0472146695    0.3506390832
C        2.5810579282    0.0450680418    1.0808868911
C       -0.2320816931   -0.3628224164   -1.6296002669
C       -1.2123757666   -0.0390133328    0.6343244312
C        4.4337961861    1.3723164844    2.0675422580
C        2.4900141520    2.5251147954    0.9746054776
N        0.1335388426   -0.0175343011    1.2036228181
N       -1.1693961512   -0.8287601213   -0.5960479484
N        3.1519332146    1.2875419230    1.3745025520
O        3.1457933313   -0.9871518958    1.4546248944
H        2.0050896900   -0.2781213090   -1.6246307321
H       -0.5683091298    0.5948544041   -2.0400167201
H       -0.1762390044   -1.0919562687   -2.4446128206
H       -1.9073740135   -0.5009349300    1.3426226322
H       -1.5497840932    0.9814664912    0.4245085909
H        5.0183601009    2.2160882685    1.6881759067
H        5.0329141463    0.4695639663    1.9108952901
H        4.2713499279    1.5047009316    3.1416218927
H        1.9200823080    2.3959439282    0.0495937549
H        3.2277534186    3.3113918217    0.7873137832
H        1.8112528208    2.8599320164    1.7653259611
H        0.2549917104   -0.3707455602    2.1487032309
H       -2.0978411829   -1.0000813404   -0.9672544458
24   

C        1.1355443886   -0.3691460262   -1.0444360450
C        1.3283708612   -0.0800351267    0.2831999303
C        2.6825793926    0.0264942361    0.9474206146
C       -0.2403055563   -0.5430206557   -1.6107633059
C       -1.1359788975    0.0540862248    0.6307826870
C        4.4293025349    1.3674853264    2.1090121974
C        2.3915011380    2.4829536137    1.1720575139
N        0.2256671295    0.0643175537    1.1612096890
N       -1.1644503569   -0.8587305656   -0.5108149424
N        3.1519594353    1.2611124218    1.4104997956
O        3.3604047149   -0.9866916971    1.1418565748
H        1.9973431098   -0.5494486350   -1.6748096692
H       -0.5506892160    0.3803336484   -2.1106789049
H       -0.2374701896   -1.3539387626   -2.3465061640
H       -1.8314613580   -0.2972059965    1.3995039724
H       -1.4297462924    1.0636141105    0.3243381088
H        5.2006819755    1.7406456049    1.4284785155
H        4.7546487528    0.4021781366    2.5094811656
H        4.3364525213    2.0534543288    2.9567459708
H        1.8590376152    2.4392860048    0.2166357666
H        3.0633312245    3.3457922687    1.1255448132
H        1.6676106702    2.6416332895    1.9774289795
H        0.3583845342   -0.1945479607    2.1343156369
H       -2.1100566756   -1.0222307591   -0.8398609523
24   

C        1.3040201057   -0.4825895094   -1.0204415076
C        1.5110209859   -0.0723983829    0.2735759628
C        2.8831141389    0.1112131348    0.8796423121
C       -0.0723306934   -0.7423633100   -1.5508560692
C       -0.9562264427    0.0205811754    0.6404283973
C        4.5438941547    1.4398291172    2.1533256938
C        2.4012427074    2.4992724098    1.4039652880
N        0.4105884925    0.1039490798    1.1504319728
N       -0.9742412650   -0.9885789886   -0.4159059227
N        3.2452414562    1.3127753031    1.5010485530
O        3.6976910643   -0.8163375132    0.8703464555
H        2.1625818367   -0.6941684570   -1.6459835689
H       -0.4144699005    0.1263563013   -2.1228685013
H       -0.0543607609   -1.6122462183   -2.2155822184
H       -1.6359503311   -0.2770087584    1.4450567928
H       -1.2748126020    0.9931905678    0.2506238588
H        5.3105012354    1.7081105033    1.4198820484
H        4.8293720698    0.5020755151    2.6412408099
H        4.5060177821    2.2115233928    2.9285842453
H        1.7786504574    2.4743101912    0.5040019908
H        3.0210529758    3.3988471242    1.3355110107
H        1.7543043800    2.5792539881    2.2827805981
H        0.5588686806   -0.0575261625    2.1417200788
H       -1.9188613981   -1.2016138032   -0.7183432247
24   

C       -0.1382186675    0.5984086346    0.7060454013
C        1.2057588728    0.4101298231    0.4873261585
C        2.2644390786    1.1339570470    1.2817625756
C       -1.1796814266   -0.0537904724   -0.1498327890
C        0.6628397597   -1.2099735898   -1.3377064576
C        4.4728964476    1.2747247937    2.3846713116
C        3.5696083580   -0.9547159220    1.6978541526
N        1.6310827222   -0.4164764492   -0.5841634116
N       -0.5664902977   -0.4279859139   -1.4321503498
N        3.4385207426    0.4987375005    1.7092151046
O        2.1146075007    2.3249142941    1.5702844548
H       -0.4482941342    1.2969396368    1.4740249291
H       -1.5657811760   -0.9438042617    0.3578595810
H       -2.0099630318    0.6405359624   -0.3154421454
H        1.0484387734   -1.4125477616   -2.3418347341
H        0.4770956353   -2.1630378957   -0.8311278146
H        4.1751219694    1.4842468925    3.4168524757
H        4.6439605891    2.2219861010    1.8625224752
H        5.4204082744    0.7268614890    2.3920839887
H        4.0731652260   -1.2938598978    2.6086247709
H        4.1495365159   -1.2795998629    0.8290075857
H        2.5912271616   -1.4449164230    1.6801263876
H        2.5207868607   -0.2079461109   -1.0257867582
H       -1.2364416137   -0.8528148585   -2.0644719800
24   

C       -0.2053401058    0.6207353748    0.5678596592
C        1.1394761991    0.3586140981    0.4373379877
C        2.1743083608    1.0792362928    1.2626124855
C       -1.2345237648   -0.0312333075   -0.3027263762
C        0.5982900141   -1.3615618125   -1.2988906475
C        4.4187845451    1.3409714367    2.2606525068
C        3.6502728252   -0.9222986380    1.5394076082
N        1.5679688609   -0.5630823864   -0.5527018493
N       -0.5758969635   -0.5239752281   -1.5201663955
N        3.4184367471    0.5175259514    1.5889161802
O        1.9348004482    2.2105146512    1.6951487951
H       -0.5234836763    1.3748944413    1.2780514686
H       -1.6978811881   -0.8625263429    0.2387707894
H       -2.0135430364    0.6937509492   -0.5604309796
H        1.0242225167   -1.6608350706   -2.2617014041
H        0.3318398796   -2.2614188540   -0.7343091407
H        4.1471835491    1.4854717545    3.3111013251
H        4.4971391301    2.3190027159    1.7741805106
H        5.4042826960    0.8675248990    2.2094318752
H        4.2505209748   -1.2367747365    2.3990577299
H        4.1780766664   -1.1951083181    0.6209179263
H        2.7092175560   -1.4782145552    1.5973522936
H        2.4872434414   -0.4312314923   -0.9613763723
H       -1.2343720809   -0.9584191806   -2.1579924211
24   

C       -0.2087957670    0.7010933361    0.5528135976
C        1.1217869391    0.3453356131    0.5089160721
C        2.1446417033    1.0133686579    1.3920490474
C       -1.2333244024    0.0956849838   -0.3560486405
C        0.5418500565   -1.4087657406   -1.1845689594
C        4.4113165317    1.3430212472    2.3127805706
C        3.7584600614   -0.9056689682    1.4619614726
N        1.5279672549   -0.6479666741   -0.4211244648
N       -0.5465450749   -0.4949246588   -1.5122494954
N        3.4381019107    0.5096972651    1.6124576080
O        1.8489117084    2.0521185234    1.9901319308
H       -0.5180816255    1.4922473278    1.2258017760
H       -1.7919324820   -0.6748513893    0.1854546848
H       -1.9362746456    0.8673848764   -0.6865381672
H        0.9952395013   -1.7878247590   -2.1058351349
H        0.1744223800   -2.2558031178   -0.5954532490
H        4.1788030585    1.3810118737    3.3817370372
H        4.4014013152    2.3610582091    1.9090949419
H        5.4232298701    0.9470293507    2.1816124394
H        4.4506927581   -1.2213233145    2.2490203757
H        4.2228502570   -1.0946670537    0.4897606079
H        2.8638699964   -1.5266755136    1.5713877331
H        2.4700037808   -0.5931419093   -0.7927405853
H       -1.2000091214   -0.9076165933   -2.1694038050
24   

C       -0.1970211175    0.7507449248    0.4813340815
C        1.1042245176    0.2970928691    0.5409100342
C        2.1042574706    0.9249758844    1.4829106116
C       -1.2104755916    0.1805016781   -0.4623433268
C        0.4715609575   -1.5172901035   -1.0725699858
C        4.3610127905    1.3475591002    2.3893574998
C        3.8835272128   -0.8491310106    1.3236090056
N        1.4769265405   -0.7813416147   -0.3107451806
N       -0.5091222013   -0.5412806107   -1.5316783726
N        3.4395214458    0.5056947740    1.6300613472
O        1.7487609024    1.8587199194    2.2082778835
H       -0.4903723567    1.5898011927    1.1013613873
H       -1.8716842487   -0.5014944510    0.0823786389
H       -1.8169755254    0.9880415801   -0.8853169005
H        0.9388803808   -2.0051460591   -1.9337000375
H       -0.0010262018   -2.2805024979   -0.4450394024
H        4.1633298432    1.2551635072    3.4619888986
H        4.2492456571    2.3966011498    2.0951135022
H        5.3987137190    1.0611869469    2.1914842001
H        4.6862700041   -1.1470916271    2.0056439052
H        4.2587458134   -0.9103473214    0.2979367075
H        3.0742459111   -1.5705152230    1.4728286073
H        2.4314867255   -0.8105837907   -0.6494970705
H       -1.1566292386   -0.9448636583   -2.2003217747
