12   
Generated by ForceBalance from scan.xyz: Frame 1 of 24
C        2.4959813005   -1.2919988167   -0.3034601596
C        3.5712451674   -0.2523657760   -0.0266094591
C        0.0613422772   -1.7064464542   -0.2971317531
N        1.2103801385   -0.8108313154   -0.3632521705
O        2.7638453003   -2.4841682548   -0.4375172993
H        3.9033214094   -0.3674487029    1.0100772511
H        3.2339296921    0.7779087377   -0.1749417410
H        4.4296891093   -0.4477926308   -0.6725270223
H       -0.7968551211   -1.2413884184   -0.7897045640
H       -0.2061908494   -1.9526956373    0.7383248164
H        0.3155784558   -2.6309745120   -0.8161383733
H        1.0633662217    0.1536984066   -0.0969825810
12   
Generated by ForceBalance from scan.xyz: Frame 2 of 24
C        2.4954694646   -1.2778929317   -0.4545055215
C        3.5457039844   -0.2715635662   -0.0099177454
C        0.0716532117   -1.6890315514   -0.2803142540
N        1.2033946052   -0.7941906567   -0.5183043336
O        2.7703195586   -2.4553678971   -0.6664494509
H        3.6536944313   -0.3538527593    1.0770412507
H        3.2847159359    0.7633225663   -0.2532161423
H        4.5052013337   -0.5217216951   -0.4653001078
H       -0.8394290723   -1.2472222932   -0.6923589940
H       -0.0733825886   -1.8866267935    0.7897173489
H        0.2664391537   -2.6357157738   -0.7845267416
H        1.0811581473    0.1512092268   -0.1755720808
12   
Generated by ForceBalance from scan.xyz: Frame 3 of 24
C        2.5113074888   -1.2571831294   -0.5774083191
C        3.5202625301   -0.2920270154    0.0257399525
C        0.1105892986   -1.6750059319   -0.2380428385
N        1.2047724128   -0.7893445331   -0.6495523689
O        2.8087697870   -2.4110428198   -0.8644387870
H        3.4738735514   -0.4037186426    1.1148059568
H        3.3148494016    0.7558034639   -0.2175449134
H        4.5263014569   -0.5531122948   -0.3054320584
H       -0.8409786190   -1.2727783937   -0.5953537113
H        0.0678153502   -1.7896851655    0.8532162287
H        0.2673750720   -2.6559003150   -0.6873642140
H        1.0996310972    0.1534638436   -0.2901057589
12   
Generated by ForceBalance from scan.xyz: Frame 4 of 24
C        2.5149640437   -1.2392310008   -0.6861842128
C        3.4697031974   -0.3202035686    0.0603818580
C        0.1519885669   -1.6610781203   -0.1858662244
N        1.1882671440   -0.7988963631   -0.7753388742
O        2.8457535125   -2.3606933798   -1.0461020284
H        3.2883717870   -0.4622809784    1.1320160258
H        3.3139216432    0.7398476449   -0.1681165483
H        4.5023493236   -0.5934668513   -0.1600739099
H       -0.8351245879   -1.2952395072   -0.4799835207
H        0.2138819291   -1.6886665039    0.9107546071
H        0.2755460993   -2.6737767290   -0.5712607746
H        1.0975632269    0.1525410065   -0.4303717694
12   
Generated by ForceBalance from scan.xyz: Frame 5 of 24
C        2.5284532999   -1.2113784891   -0.7897131684
C        3.4101865702   -0.3420601610    0.0936148192
C        0.2099353534   -1.6285547272   -0.1504033431
N        1.1778702500   -0.8119979337   -0.9076094700
O        2.9116135378   -2.2844565004   -1.2269889619
H        3.1106366053   -0.5231849330    1.1327544870
H        3.2876921967    0.7289454662   -0.1028521276
H        4.4580570976   -0.6190607086   -0.0276062327
H       -0.8021170296   -1.2842344989   -0.3778272979
H        0.3708305566   -1.5726370964    0.9360593538
H        0.2978456023   -2.6692747451   -0.4664969739
H        1.0802625999    0.1571042109   -0.6123534219
12   
Generated by ForceBalance from scan.xyz: Frame 6 of 24
C        2.4040826076   -1.1079830078   -0.7108219742
C        3.2794077403   -0.5396570965    0.3854851982
C        0.1429764339   -1.5065673635    0.1273830059
N        1.0504902446   -0.6618339850   -0.6818318590
O        2.8602310649   -1.7168182176   -1.6669055656
H        2.7507223775   -0.4482261220    1.3383979927
H        3.5562931972    0.4721088484    0.0700725864
H        4.1860291998   -1.1346942594    0.5052278407
H       -0.8649584441   -1.0866750397    0.0807410064
H        0.4594279524   -1.4964518753    1.1747802003
H        0.1155575616   -2.5481060923   -0.2191541883
H        0.7354087018   -0.7436151787   -1.6503428176
12   
Generated by ForceBalance from scan.xyz: Frame 7 of 24
C        2.4395951681   -1.0926464900   -0.7561133552
C        3.2411472272   -0.5943166461    0.4309732161
C        0.1807602167   -1.4833593695    0.1646332143
N        1.0721115013   -0.7503942272   -0.7545148914
O        2.9796646151   -1.5589087686   -1.7511821888
H        2.6567150148   -0.5247181652    1.3515237519
H        3.5795810069    0.4152457846    0.1751495806
H        4.1191116883   -1.2233074087    0.5872145034
H       -0.8268356916   -1.0666762767    0.0894168104
H        0.5159160096   -1.3553860032    1.1971619955
H        0.1401253129   -2.5577520471   -0.0577469058
H        0.7492803784   -0.9021606614   -1.7106503474
12   
Generated by ForceBalance from scan.xyz: Frame 8 of 24
C        2.4408090684   -1.0301809446   -0.8267279935
C        3.2080630653   -0.6286029023    0.4201963571
C        0.1952283393   -1.4398392286    0.1895510797
N        1.0617459822   -0.8057157454   -0.8149524400
O        3.0217819502   -1.3435141289   -1.8606260097
H        2.6262926132   -0.6892797342    1.3422518406
H        3.5128805692    0.4139910371    0.2823670533
H        4.1088963709   -1.2379834819    0.5085265978
H       -0.8311607188   -1.1001601948    0.0303178256
H        0.4882258441   -1.1351178603    1.1965102135
H        0.2161314076   -2.5362838548    0.1345593286
H        0.7172082516   -0.9897771800   -1.7560078385
12   
Generated by ForceBalance from scan.xyz: Frame 9 of 24
C        2.3473781699   -1.0582899431   -0.7914491970
C        3.0612636345   -0.6957736726    0.5006139359
C        0.1114573500   -1.2368953088    0.3003846993
N        0.9746169945   -0.8420355337   -0.8166318785
O        2.9545432547   -1.4021208150   -1.8012513343
H        2.9130496395   -1.4679616788    1.2640437293
H        2.6889147790    0.2503704612    0.9034290193
H        4.1282302759   -0.6186350386    0.2914803438
H       -0.9073507130   -0.8982120485    0.0965799038
H        0.4406443967   -0.7517212867    1.2221860562
H        0.0951859616   -2.3231303061    0.4630258427
H        0.6104557455   -1.1329559658   -1.7211107691
12   
Generated by ForceBalance from scan.xyz: Frame 10 of 24
C        2.3825643287   -0.9657818447   -1.0685557547
C        3.1117117024   -0.6753082178    0.2330090846
C        0.2137259488   -1.2594093189    0.1627617639
N        1.0018421933   -0.9293799758   -1.0220368259
O        2.9766971916   -1.1469959418   -2.1288403405
H        2.9692882215   -1.4855633388    0.9565613377
H        2.7461020960    0.2487882220    0.6915406694
H        4.1751947188   -0.5802533810    0.0150145613
H       -0.8368830430   -1.0378179159   -0.0399765018
H        0.5213335385   -0.6418015557    1.0096459824
H        0.2973943042   -2.3159797066    0.4521214997
H        0.6021191175   -1.2187548090   -1.9097343761
12   
Generated by ForceBalance from scan.xyz: Frame 11 of 24
C        2.6523754988   -0.7997305207   -0.6998799962
C        3.2395459587   -0.6193610060    0.6906657546
C        0.3856739874   -1.2033143396    0.3359786578
N        1.2845707380   -0.9235256007   -0.7760227191
O        3.3486581180   -0.8013839131   -1.7136662806
H        3.0041120634   -1.4703881776    1.3384979807
H        2.8430817295    0.2819714141    1.1699775857
H        4.3211508478   -0.5287542828    0.5946656066
H       -0.6444197277   -1.0677019435   -0.0018260258
H        0.5564269802   -0.5027659241    1.1572149530
H        0.4899171573   -2.2262415429    0.7227408077
H        0.9592115937   -1.1367080266   -1.7123345855
12   
Generated by ForceBalance from scan.xyz: Frame 12 of 24
C        2.6048242674   -0.9065723730   -0.7491299916
C        3.2212076896   -0.8021377469    0.6366512665
C        0.3334585846   -1.1449801267    0.3377495169
N        1.2429864641   -1.0660381369   -0.7963718502
O        3.2783308280   -0.8533368546   -1.7774275370
H        3.1014133941   -1.7405913038    1.1890023614
H        2.7521904309   -0.0086630138    1.2274953790
H        4.2839761371   -0.5903793575    0.5225687117
H       -0.6578339995   -1.4199859734   -0.0283891025
H        0.2445748936   -0.1886374715    0.8681362367
H        0.6473555541   -1.9112562574    1.0541000625
H        0.8652055804   -1.1159792798   -1.7347046013
12   
Generated by ForceBalance from scan.xyz: Frame 13 of 24
C        2.6369335001   -0.9211862785   -0.7126648702
C        3.2544319882   -0.8771472690    0.6757393542
C        0.3504061554   -1.1279273079    0.3372224725
N        1.2889728821   -1.1875515274   -0.7755454967
O        3.3022840832   -0.7618953019   -1.7347239797
H        3.1115308033   -1.8274755472    1.2007450265
H        2.8037481830   -0.0888866703    1.2881488265
H        4.3211427091   -0.6826282598    0.5680954442
H       -0.6023342438   -1.5562242431    0.0171629246
H        0.1672738393   -0.1029227410    0.6873959805
H        0.7109877760   -1.7229813463    1.1800108927
H        0.9147040138   -1.1078897880   -1.7144795886
12   
Generated by ForceBalance from scan.xyz: Frame 14 of 24
C        2.3648175419   -1.2351424258    0.6164250367
C        3.1205587693   -0.5579845545   -0.5151288429
C        0.2238243499   -1.1256913023   -0.6913930449
N        0.9852833295   -1.1816356883    0.5539361070
O        2.9368114542   -1.7379425295    1.5808164794
H        2.7615482858    0.4638978787   -0.6724295849
H        2.9964951161   -1.1036565413   -1.4570290037
H        4.1787999540   -0.5386173801   -0.2556994112
H       -0.8316541499   -0.9744285281   -0.4525007873
H        0.3174010102   -2.0408402428   -1.2920728750
H        0.5472540303   -0.2770425854   -1.2984047795
H        0.5677235174   -1.7305610395    1.2994882588
12   
Generated by ForceBalance from scan.xyz: Frame 15 of 24
C        2.3358819425   -1.2371059212    0.3236153156
C        3.0759098092   -0.4943483585   -0.7769061642
C        0.1244397128   -1.0613084587   -0.8174199606
N        0.9621368947   -1.0348494076    0.3851806198
O        2.9225572356   -1.8789119749    1.1899100110
H        2.7088926554    0.5312510669   -0.8745615038
H        2.9467781008   -0.9914523638   -1.7450380152
H        4.1378855601   -0.4892788852   -0.5313725130
H       -0.8996849016   -0.7991530299   -0.5405519560
H        0.1155021673   -2.0436078491   -1.3089801119
H        0.4715160114   -0.3154273917   -1.5362211196
H        0.5797752908   -1.5905598081    1.1469651861
12   
Generated by ForceBalance from scan.xyz: Frame 16 of 24
C        2.4284366455   -1.2216174449    0.3678608524
C        3.2207196403   -0.4558838053   -0.6765065233
C        0.2065445724   -1.2888781753   -0.7731685288
N        1.0491513738   -1.0000795047    0.3967041422
O        2.9883012018   -1.8418102007    1.2659504916
H        3.5188210520    0.4916756125   -0.2158771168
H        2.6589959634   -0.2259432805   -1.5842062074
H        4.1253914212   -1.0108118281   -0.9300246722
H       -0.8242112436   -1.0119398007   -0.5385214403
H        0.2301617102   -2.3484485415   -1.0602308426
H        0.5198996488   -0.6880565998   -1.6296097157
H        0.6852467599   -1.4655905848    1.2267903459
12   
Generated by ForceBalance from scan.xyz: Frame 17 of 24
C        2.4289532016   -1.2591208804    0.2813556108
C        3.2539045257   -0.4200534158   -0.6754169690
C        0.1917019990   -1.3379304119   -0.7632794860
N        1.0606094000   -0.9287865303    0.3566220484
O        2.9492964119   -2.0125476145    1.0942691424
H        3.5832106055    0.4594258145   -0.1121469682
H        2.6890254300   -0.0667096454   -1.5413718904
H        4.1372333865   -0.9725058587   -1.0000531041
H       -0.8187433317   -0.9618019627   -0.5842280718
H        0.1501400141   -2.4282080358   -0.8857172111
H        0.5483800343   -0.8973687203   -1.6978961869
H        0.7179694357   -1.3683359963    1.2115150379
12   
Generated by ForceBalance from scan.xyz: Frame 18 of 24
C        2.3944705466   -1.2595516675    0.2327918310
C        3.2909902342   -0.3823060986   -0.6144215197
C        0.1532135058   -1.3714169071   -0.7358728112
N        1.0402310901   -0.8219923251    0.3145161277
O        2.8322512861   -2.1361780464    0.9626696966
H        3.5574818293    0.4810014879    0.0048548127
H        2.7824586674    0.0016432745   -1.5031785722
H        4.2020691738   -0.9138806302   -0.8932290215
H       -0.8569717609   -0.9833811340   -0.5829948460
H        0.1220959509   -2.4689768690   -0.7298315043
H        0.4919275325   -1.0382417285   -1.7215460860
H        0.7048262454   -1.1988627757    1.2030262398
12   
Generated by ForceBalance from scan.xyz: Frame 19 of 24
C        2.5175161056   -1.3827300869    0.2783808370
C        3.4148166309   -0.2853283384   -0.2729787072
C        0.2146664922   -1.5737141462   -0.5081860989
N        1.1633168559   -1.0351679404    0.4853201173
O        2.8950566425   -2.5397295114    0.3696702144
H        3.2843602920    0.6724538424    0.2430557852
H        3.1381604558   -0.1345266837   -1.3232490628
H        4.4608362347   -0.5896577453   -0.2211803329
H       -0.8032241367   -1.3135433640   -0.2069586905
H        0.2994982961   -2.6614354535   -0.5283723387
H        0.3985171925   -1.1843700412   -1.5201274712
H        1.0685989567   -0.0219643910    0.5029108710
12   
Generated by ForceBalance from scan.xyz: Frame 20 of 24
C        2.5063480737   -1.3770963628    0.1710246194
C        3.4735331847   -0.2750355388   -0.2333441807
C        0.1560892283   -1.6154339846   -0.4857862640
N        1.1765012321   -0.9817821886    0.3638923371
O        2.8333566998   -2.5559534062    0.1726003550
H        3.3090783084    0.6625375205    0.3089636110
H        3.3156969103   -0.0774922565   -1.2998953652
H        4.5022028210   -0.6064699896   -0.0862984868
H       -0.8383591452   -1.3554903569   -0.1139846676
H        0.2749196279   -2.6981117218   -0.4306291822
H        0.2415094400   -1.3020430671   -1.5353855333
H        1.0897961310    0.0300099928    0.3289541930
12   
Generated by ForceBalance from scan.xyz: Frame 21 of 24
C        2.5035741702   -1.3628449118    0.0603232622
C        3.5203706674   -0.2594184883   -0.1882516485
C        0.1144019501   -1.6500395886   -0.4471563166
N        1.1931235125   -0.9379780384    0.2460906311
O        2.7998031368   -2.5495008494   -0.0198813175
H        3.3072294433    0.6579393004    0.3706716765
H        3.4945406543   -0.0202759248   -1.2572823607
H        4.5208551672   -0.6148349392    0.0620196449
H       -0.8478518080   -1.3770527110   -0.0062156337
H        0.2667067479   -2.7221301081   -0.3207738151
H        0.0985856381   -1.4202190177   -1.5208171000
H        1.0966682246    0.0704908056    0.1910614038
12   
Generated by ForceBalance from scan.xyz: Frame 22 of 24
C        2.4919836434   -1.3419119767   -0.0617122989
C        3.5478224758   -0.2506784899   -0.1498242436
C        0.0739541950   -1.6711091678   -0.4064989386
N        1.1971154174   -0.8977329211    0.1213521979
O        2.7664708702   -2.5279386382   -0.2195333754
H        3.2780189946    0.6585656714    0.3967827250
H        3.6791853636    0.0078219928   -1.2061551681
H        4.4983133700   -0.6327817867    0.2258772815
H       -0.8474291702   -1.3751774082    0.1019466476
H        0.2608429058   -2.7280173874   -0.2157034939
H       -0.0469164095   -1.5275429926   -1.4880839306
H        1.0787849207    0.1077228897    0.0860617224
12   
Generated by ForceBalance from scan.xyz: Frame 23 of 24
C        2.4962492652   -1.3081712173   -0.2102655864
C        3.5730440094   -0.2370384817   -0.1274352410
C        0.0641690825   -1.6938657896   -0.3954086798
N        1.2078879159   -0.8661119230   -0.0299010723
O        2.7656761416   -2.4835553038   -0.4487473031
H        3.2288630605    0.6968061869    0.3272290072
H        3.9267956588   -0.0246248971   -1.1413272073
H        4.4187684359   -0.6262342267    0.4431859703
H       -0.8076179039   -1.3977287412    0.1941995980
H        0.3082796497   -2.7339655485   -0.1777211903
H       -0.1764394072   -1.6107404386   -1.4629179605
H        1.0624887774    0.1337799038    0.0137471665
12   
Generated by ForceBalance from scan.xyz: Frame 24 of 24
C        2.5185268760   -1.3063972043   -0.1751189465
C        3.6044076740   -0.2498348971   -0.0394328254
C        0.0775205569   -1.7065489293   -0.3355885009
N        1.2338681835   -0.8309573613   -0.2093606196
O        2.7885753767   -2.5031276295   -0.2661567848
H        4.2339918028   -0.5023448844    0.8174683274
H        3.2203496291    0.7670832473    0.0851619733
H        4.2355027936   -0.2829216149   -0.9318798344
H       -0.6378817300   -1.2872737688   -1.0497990865
H       -0.4249332745   -1.8565990838    0.6277548115
H        0.4266489298   -2.6734287211   -0.6993350021
H        1.0811409755    0.1593848262   -0.0817380923
