47

C     -4.01713   -1.71981    3.98740
C      2.58565   -0.16450    0.09195
C     -3.67495   -0.66873    3.13326
C      1.40703    0.38968    0.58785
C     -3.58910   -1.72243    5.31847
C      1.21865   -1.49574    2.09206
C      5.50034   -1.21692   -0.19355
C     -2.46578    0.40294    4.93343
C      4.28715   -3.23361   -0.65869
C      6.46605   -3.10292   -1.36353
C      3.10676   -1.37830    0.56123
C      2.41112   -2.03573    1.59944
C      4.31328   -1.94960   -0.08609
C     -2.89819    0.40326    3.59879
C      0.70221   -0.29202    1.59370
C      6.57222   -1.81806   -0.83811
C     -2.81500   -0.65375    5.77557
C      2.92747   -3.25703    2.23888
C     -1.19802    1.32246    1.87797
C     -3.55135    2.30463    1.94236
C     -2.77296    2.95057    3.04791
C     -2.47737    1.50226    2.66864
N      5.32577   -3.80051   -1.27798
N      4.25245   -3.51749    2.46481
N      2.14310   -4.22527    2.72784
N      4.31108   -4.66292    3.09830
N      3.04738   -5.05693    3.24181
N     -0.50870    0.16338    2.14981
O     -0.82332    2.16587    1.06479
F      7.74513   -1.14734   -0.95390
Cl    -2.26712   -0.63872    7.44367
H     -4.62072   -2.54532    3.62017
H      3.10430    0.34786   -0.71389
H     -4.00853   -0.67353    2.09906
H      1.02518    1.32440    0.20184
H     -3.85170   -2.53376    5.98978
H      0.70296   -2.01663    2.89492
H      5.60101   -0.22354    0.23367
H     -1.86060    1.22257    5.30911
H      3.37277   -3.82280   -0.61698
H      7.31527   -3.56642   -1.86138
H     -4.58016    2.01959    2.13876
H     -3.31964    2.60263    0.92565
H     -2.02092    3.68152    2.77134
H     -3.26845    3.10844    4.00082
H      2.79967   -5.93080    3.69335
H     -0.92231   -0.44693    2.84421
