40

C      1.42762   -2.00176   -2.15789
C     -0.76930   -2.76661   -1.54880
C      1.33719   -2.67894   -3.37607
C     -0.87774   -3.44911   -2.76103
C      1.84274   -4.47846    2.64477
C      1.51606   -3.14145    2.57578
C      0.16628   -4.35003    1.30872
C      0.38016   -2.03022   -1.22732
C      0.17887   -3.39823   -3.67114
C      0.81111    1.31858   -0.69012
C      0.38131    1.33030    0.75667
C     -0.09084    0.22123   -0.16824
C     -3.08588   -0.13047   -3.06381
C     -0.21524   -1.83873    1.26765
C     -1.74496    0.30871   -2.47955
C      0.49568   -1.19477    0.04875
N      0.99456   -5.22288    1.85132
N      0.42872   -3.06529    1.71475
O      1.87533   -1.00411    0.38530
S     -1.83504    0.28030   -0.63880
Cl     0.04732   -4.24694   -5.20188
H      2.32291   -1.43351   -1.93005
H     -1.61608   -2.79180   -0.87333
H      2.15507   -2.64598   -4.08906
H     -1.77571   -4.01071   -2.99881
H      2.62994   -4.94304    3.22476
H      1.91085   -2.26425    3.06866
H     -0.63300   -4.58364    0.61900
H      0.37360    2.04594   -1.36536
H      1.84010    1.04776   -0.89832
H      1.13345    1.06692    1.49269
H     -0.35578    2.06089    1.07203
H     -3.31043   -1.16587   -2.79158
H     -3.90657    0.50239   -2.70999
H     -3.05683   -0.06357   -4.15650
H     -0.18424   -1.11874    2.08742
H     -1.26324   -2.04226    1.05123
H     -1.49601    1.32454   -2.79923
H     -0.94497   -0.35870   -2.80057
H      2.25357   -1.87761    0.58928
