29   

C        2.3220057102   -3.3713153272    0.4960856415
C        3.1980987974   -2.5967793765    1.2589490316
C        0.9445131688   -3.2466186546    0.6856205959
C        2.6974110174   -1.7147395468    2.2231506994
C        0.4430494185   -2.3633997048    1.6479499188
C       -0.1733534078   -3.4794185618    5.7544467912
C        0.4098256944   -4.7286296263    5.9782415829
C       -1.1143464510   -4.3114959244    3.6965883114
C        1.3108384069   -1.6114618286    2.4591259217
C       -0.9290603412   -3.2543778659    4.5998909744
C        0.2457885274   -5.7761638646    5.0634960780
C       -0.5294565443   -5.5650993126    3.9089480712
C        0.8672672910   -0.6482524085    3.4698439638
C       -0.3002261262   -0.4753195610    4.1185626354
O       -2.5075404191   -1.6521660174    3.0642589567
O       -2.4798291298   -1.2135972895    5.4586738240
S       -1.6897845672   -1.6260970056    4.2885706230
Cl       1.0007437060   -7.3234805715    5.3776841428
Cl      -0.7754745007   -6.8391750926    2.7340687759
H        2.7082428647   -4.0565241655   -0.2504009782
H        4.2678108769   -2.6790983286    1.1025216129
H        0.2596682805   -3.8253174919    0.0757724565
H        3.3994856391   -1.1232240364    2.8001523390
H       -0.6285402047   -2.2556247239    1.7179125109
H       -0.0402296545   -2.6824327136    6.4809621684
H        0.9977688411   -4.8947431608    6.8730814019
H       -1.7230559432   -4.1644225891    2.8087573926
H        1.6254189872    0.0750432240    3.7524034022
H       -0.4374724693    0.4184996622    4.7082057427
29   

C        2.1688332945   -3.5528025877    0.6819309918
C        3.0575576616   -2.9056575073    1.5439574769
C        0.8156315387   -3.2072310531    0.6939566132
C        2.5900918421   -1.9283867277    2.4300300133
C        0.3474808083   -2.2302779299    1.5793949397
C       -0.1068637496   -3.4261883368    5.7115848445
C        0.5518708641   -4.6442523218    5.8954187576
C       -0.9823592948   -4.2416655213    3.6188197769
C        1.2209392305   -1.6029353583    2.4840970223
C       -0.8670835616   -3.2074248898    4.5590221257
C        0.4602314583   -5.6659163002    4.9417849863
C       -0.3208080122   -5.4626066292    3.7899870627
C        0.7885850688   -0.5637590292    3.4267177528
C       -0.3743241938   -0.4020685206    4.0822573255
O       -2.5500290419   -1.6655014525    3.0763057186
O       -2.4862164486   -1.2413408663    5.4753896603
S       -1.7081013534   -1.6124483344    4.2834366279
Cl       1.3133218764   -7.1713988706    5.2033756734
Cl      -0.4757995392   -6.7037431214    2.5653388817
H        2.5293680691   -4.3123781893   -0.0029062329
H        4.1108037607   -3.1622393342    1.5259737276
H        0.1270522079   -3.6895675221    0.0090939386
H        3.2962029862   -1.4382125767    3.0909536138
H       -0.6971973631   -1.9509665226    1.5312093231
H       -0.0263129873   -2.6474943632    6.4651500447
H        1.1447259106   -4.8053467433    6.7878492898
H       -1.5898953710   -4.0980196215    2.7297020858
H        1.5488908565    0.1716656470    3.6695138776
H       -0.5408718138    0.5036683106    4.6453598351
29   

C        1.9549151297   -3.7091538736    0.8288070931
C        2.8092314925   -3.2514097523    1.8358162232
C        0.7022450325   -3.1144001881    0.6569598623
C        2.4073416923   -2.2072085649    2.6767166036
C        0.2978314396   -2.0742028740    1.5007866493
C       -0.0856479639   -3.3881517803    5.6851010517
C        0.6451907814   -4.5678993447    5.8469829713
C       -0.8671318746   -4.1929769398    3.5515170735
C        1.1372304989   -1.6222771799    2.5329554373
C       -0.8332823592   -3.1812849947    4.5220950621
C        0.6382097808   -5.5628834104    4.8611525496
C       -0.1337073030   -5.3750246476    3.7008701580
C        0.7369044206   -0.5324933946    3.4406843584
C       -0.4296955076   -0.3681635046    4.0831935455
O       -2.5434761323   -1.6832927104    3.0238444850
O       -2.5425221258   -1.2830473517    5.4335251250
S       -1.7324345848   -1.6162320320    4.2515431054
Cl       1.5875491503   -7.0148695567    5.0914766047
Cl      -0.1829500998   -6.5838058324    2.4356081963
H        2.2646893247   -4.5200697908    0.1788862284
H        3.7838601480   -3.7080946261    1.9659819189
H        0.0419925656   -3.4571529227   -0.1319863330
H        3.0802972635   -1.8656318349    3.4551399553
H       -0.6704230706   -1.6121859021    1.3394573070
H       -0.0650282946   -2.6267633529    6.4600258109
H        1.2317329779   -4.7180888184    6.7454444268
H       -1.4588057501   -4.0561596527    2.6507195786
H        1.5147256069    0.1854043854    3.6802552948
H       -0.6160014714    0.5356407997    4.6429341879
29   

C        1.8470414684   -3.7480610719    0.8906264525
C        2.6266529167   -3.3936798507    1.9956230640
C        0.6928442966   -3.0187494452    0.5912308436
C        2.2526323354   -2.3112453346    2.8003170364
C        0.3159872318   -1.9403984675    1.3991225576
C       -0.0781122380   -3.3634551138    5.6551663519
C        0.6730533158   -4.5294367288    5.8248935866
C       -0.8015849610   -4.1711233007    3.5019636904
C        1.0907881315   -1.5767877120    2.5123706319
C       -0.8077020584   -3.1650508274    4.4790624518
C        0.7022431846   -5.5202299755    4.8352926321
C       -0.0519677659   -5.3419453548    3.6619463805
C        0.6919943487   -0.4564548508    3.3922654672
C       -0.4509102876   -0.3416796510    4.0807140972
O       -2.5003457096   -1.6861457822    2.9417219724
O       -2.5850129881   -1.3127548689    5.3565299438
S       -1.7321621282   -1.6162468202    4.1967304330
Cl       1.6751369718   -6.9547830394    5.0765517270
Cl      -0.0588463913   -6.5489696677    2.3939211104
H        2.1348773367   -4.5885858033    0.2688351499
H        3.5194962782   -3.9617509529    2.2311862545
H        0.0853132856   -3.2896647331   -0.2651284083
H        2.8615256006   -2.0518905171    3.6590000367
H       -0.5844395932   -1.3837701230    1.1580034428
H       -0.0863136315   -2.6056907143    6.4338273382
H        1.2466135045   -4.6725045596    6.7329056754
H       -1.3746225629   -4.0381148454    2.5885951162
H        1.4530051964    0.2933522816    3.5829810947
H       -0.6456096192    0.5391056971    4.6731934022
29   

C        2.0812643640   -3.2008718247    0.8074136014
C        2.3630965789   -3.9910362279    1.9260918655
C        1.8244518295   -1.8357503332    0.9664060994
C        2.3931614368   -3.4154900668    3.2016116832
C        1.8527147127   -1.2614940919    2.2420048173
C       -0.8249577911   -3.9144595050    4.9266813845
C       -0.9392731973   -5.1886793310    4.3642041491
C       -1.0269841746   -2.9506482809    2.7257598306
C        2.1472752585   -2.0436623913    3.3688127183
C       -0.8487994478   -2.7819920173    4.1067157953
C       -1.0925265879   -5.3570376838    2.9821488732
C       -1.1463483837   -4.2223035329    2.1533358739
C        2.1380856025   -1.4559277123    4.7318931350
C        1.0608777457   -1.0821932333    5.4302754968
O       -0.8100272622   -0.0828867647    3.7617215847
O       -1.5529480978   -0.9114613560    5.9397596797
S       -0.6372766799   -1.1084610543    4.8050388893
Cl      -1.2112235943   -6.9708494276    2.3155808071
Cl      -1.3458953592   -4.3719227601    0.4204427975
H        2.0531289982   -3.6474436687   -0.1803914538
H        2.5505571799   -5.0519629768    1.8050241255
H        1.5965024306   -1.2211935178    0.1026049016
H        2.6000169254   -4.0396997759    4.0635249954
H        1.6361277451   -0.2040215181    2.3590373721
H       -0.7087574522   -3.8048656324    6.0014299879
H       -0.9079686792   -6.0636249314    5.0025875486
H       -1.0585754304   -2.0797588196    2.0768886765
H        3.0902048017   -1.4458306002    5.2525561468
H        1.1602105421   -0.7227888169    6.4429870842
29   

C        2.1000068157   -3.2793193123    0.8611411814
C        2.2728393314   -4.0141885115    2.0381577218
C        1.9395252418   -1.8916875257    0.9241414934
C        2.2877670053   -3.3612636486    3.2760795398
C        1.9575756730   -1.2397569655    2.1622229166
C       -0.7993050381   -3.9544825628    4.9175871957
C       -0.9078709950   -5.2112783849    4.3153919987
C       -1.0269132766   -2.9231096297    2.7495176609
C        2.1401816937   -1.9678322427    3.3463124774
C       -0.8393660869   -2.7967778650    4.1339284731
C       -1.0729235635   -5.3368076755    2.9299868881
C       -1.1430341448   -4.1768093894    2.1381745202
C        2.1264060470   -1.2895134311    4.6700026622
C        1.0602188145   -1.0368348903    5.4342764506
O       -0.9286199421   -0.0925642926    3.8835374423
O       -1.5321067099   -1.0225171877    6.0613925480
S       -0.6601556898   -1.1414304755    4.8820550718
Cl      -1.1860487296   -6.9293321117    2.2131632555
Cl      -1.3591888193   -4.2727332851    0.4034384223
H        2.0810470375   -3.7856094918   -0.0976622623
H        2.3854948777   -5.0914522655    1.9915504560
H        1.7953009469   -1.3200291062    0.0141144939
H        2.4097852044   -3.9405678161    4.1842869725
H        1.8173743421   -0.1643559723    2.2057816321
H       -0.6787100618   -3.8779018780    5.9947870865
H       -0.8651602880   -6.1060368334    4.9250716104
H       -1.0718465796   -2.0322330282    2.1290749791
H        3.0997569880   -1.0568199773    5.0898235747
H        1.1829347175   -0.6684730749    6.4412059165
29   

C        2.7883030404   -4.2957558277    2.0007114877
C        3.1455881683   -4.1035584758    3.3386401914
C        2.0482289904   -3.3161482895    1.3323334853
C        2.7582741725   -2.9364868623    4.0068926939
C        1.6646329757   -2.1491157205    2.0025144917
C       -0.3982659503   -4.1793695431    3.9962224501
C       -0.7766359765   -4.8744859487    2.8471972642
C       -1.7264167492   -2.2989478874    3.2794380579
C        2.0025143710   -1.9545791265    3.3505991127
C       -0.8571982578   -2.8759194794    4.2152498116
C       -1.6182490783   -4.2878157529    1.8958761265
C       -2.1038854562   -2.9853364480    2.1172433500
C        1.6164645780   -0.7049149725    4.0536402430
C        0.6689720958   -0.5680780713    4.9868592657
O       -1.4469009940   -1.3783680789    6.4010581412
O        0.5584983521   -2.7740346062    6.5355539282
S       -0.2950532845   -1.9359500529    5.6754085216
Cl      -2.0407996997   -5.1815085086    0.4518040047
Cl      -3.1576847049   -2.2037155474    0.9588660268
H        3.0871777574   -5.1998052245    1.4818961720
H        3.7239018001   -4.8573229043    3.8612732283
H        1.7697028434   -3.4598548848    0.2943425307
H        3.0369258852   -2.7967743252    5.0469470357
H        1.0902859905   -1.3962574912    1.4741131004
H        0.2717297201   -4.6465085733    4.7137164367
H       -0.4028776594   -5.8779168849    2.6826344264
H       -2.1057622747   -1.2947387028    3.4431840781
H        2.0700013545    0.2075031355    3.6800117989
H        0.4268861173    0.4032832532    5.3900446167
29   

C        2.8474054861   -4.2853830810    2.0180143243
C        3.0672228568   -4.1107180733    3.3872402858
C        2.2083543883   -3.2819086677    1.2844439587
C        2.6400282118   -2.9390194823    4.0219433503
C        1.7875298723   -2.1084723227    1.9203197471
C       -0.4114490764   -4.1920276623    3.9949101611
C       -0.8038593306   -4.8720753563    2.8415559132
C       -1.7303283673   -2.2944912903    3.3077144540
C        1.9831324431   -1.9310626064    3.2986739001
C       -0.8572747809   -2.8869505183    4.2299324589
C       -1.6495689685   -4.2696461328    1.9036923443
C       -2.1239991455   -2.9662900213    2.1427832560
C        1.5350846803   -0.6883072074    3.9660982485
C        0.6707270690   -0.5830064508    4.9832800024
O       -1.4104908355   -1.4096486292    6.4389638563
O        0.5998797455   -2.8000523128    6.5279987675
S       -0.2710333512   -1.9591506981    5.6882337672
Cl      -2.0924188021   -5.1455670857    0.4548381448
Cl      -3.1836096918   -2.1653088169    1.0030746849
H        3.1754700593   -5.1940395997    1.5255497636
H        3.5698046911   -4.8815185580    3.9608783319
H        2.0370542414   -3.4124006738    0.2217837819
H        2.8191560741   -2.8147624404    5.0855706765
H        1.2900833932   -1.3393890192    1.3398842495
H        0.2596285246   -4.6721170353    4.7027068996
H       -0.4392475070   -5.8765324026    2.6632771045
H       -2.0997187287   -1.2887606306    3.4842842625
H        1.8584956156    0.2400428152    3.5063551916
H        0.4396678888    0.3814109375    5.4090890471
29   

C        2.9381556856   -4.2200076834    1.9827390306
C        2.9751817556   -4.1077968102    3.3746933609
C        2.4433461074   -3.1624319419    1.2157296681
C        2.5064765156   -2.9457302140    3.9975422686
C        1.9814631282   -1.9985673152    1.8405215289
C       -0.4718358517   -4.1820180423    4.0738777726
C       -0.8817280852   -4.8997053264    2.9497126740
C       -1.7545488251   -2.2875815636    3.3140769264
C        1.9906428089   -1.8803797955    3.2396474813
C       -0.8906122686   -2.8597866286    4.2571468777
C       -1.7207674023   -4.3193157907    1.9919715626
C       -2.1677398511   -2.9980324937    2.1795916129
C        1.4740279099   -0.6565091255    3.8779540664
C        0.6641752122   -0.5463310133    4.9421104181
O       -1.4353545427   -1.3004043705    6.4079722620
O        0.5506763112   -2.7130205087    6.5624307241
S       -0.2983530076   -1.8894857963    5.6842543750
Cl      -2.1929037845   -5.2460496013    0.5845517649
Cl      -3.2206114854   -2.2239612409    1.0153127093
H        3.2978630723   -5.1213900205    1.4990633040
H        3.3709841558   -4.9189557752    3.9755962809
H        2.4153336136   -3.2438813048    0.1348961224
H        2.5619335454   -2.8719105870    5.0783563208
H        1.5947661404   -1.1900224091    1.2301284332
H        0.1876944204   -4.6487532099    4.8011825491
H       -0.5398284904   -5.9183876445    2.8113306013
H       -2.1050991234   -1.2691955526    3.4523359909
H        1.7213453497    0.2721382751    3.3736795818
H        0.4562763418    0.4248092670    5.3647916530
29   

C        3.0358064823   -4.0341724669    1.7318753559
C        2.7687047473   -4.1483471812    3.0970776931
C        2.8214726990   -2.8153139128    1.0865687646
C        2.2771234725   -3.0503917830    3.8117232414
C        2.3319146922   -1.7182541845    1.8038850447
C       -0.6795804721   -4.3060534050    4.3343946856
C       -1.1066371763   -5.1047701604    3.2727222834
C       -1.5975681755   -2.3706149340    3.2274302332
C        2.0358168978   -1.8186730847    3.1748676121
C       -0.9101462019   -2.9258694413    4.3150792062
C       -1.7733942843   -4.5475775586    2.1756356103
C       -2.0245007940   -3.1630133012    2.1541793959
C        1.4875024921   -0.6491378751    3.8708062028
C        0.6529315345   -0.5596063127    4.9213517992
O       -1.4770988848   -1.2550021140    6.3676409219
O        0.4920007588   -2.6577650553    6.6277612196
S       -0.3296152223   -1.8751239896    5.6885316561
Cl      -2.2816665340   -5.5825636281    0.8590992952
Cl      -2.8567066442   -2.4137885824    0.8090156942
H        3.4147387757   -4.8853924297    1.1772135436
H        2.9498536419   -5.0870847605    3.6082301439
H        3.0321012727   -2.7195955130    0.0272782741
H        2.1182103314   -3.1656702676    4.8757547192
H        2.1657947664   -0.7841830620    1.2787339620
H       -0.1628276497   -4.7589562599    5.1770991614
H       -0.9192173327   -6.1717242306    3.2951886807
H       -1.8019101868   -1.3047103602    3.2040373591
H        1.7648600200    0.3052555067    3.4347003928
H        0.4489585613    0.4115618253    5.3464204764
29   

C        3.3431327552   -3.9362528132    1.7049331003
C        2.8302860984   -4.1448918825    2.9852826748
C        3.2553514216   -2.6701254426    1.1267869755
C        2.2226000431   -3.0939809021    3.6813657899
C        2.6481495449   -1.6207099919    1.8248541509
C       -0.7889882886   -4.3438477863    4.3990077315
C       -1.3004522823   -5.1636908626    3.3917691466
C       -1.7282160169   -2.4208653822    3.2878797738
C        2.1088345871   -1.8098534557    3.1117901053
C       -0.9889235183   -2.9594785052    4.3498825908
C       -2.0230076138   -4.6240621824    2.3213243595
C       -2.2412319440   -3.2348257490    2.2699769242
C        1.4424836690   -0.6768155944    3.7569882841
C        0.6016603581   -0.5815683806    4.8046188615
O       -1.4303437779   -1.2475405408    6.3943535438
O        0.5509003335   -2.6439324059    6.5701903834
S       -0.3236132057   -1.8816674998    5.6627896655
Cl      -2.6428119314   -5.6864431280    1.0762275108
Cl      -3.1422955926   -2.5067602784    0.9577928056
H        3.8127147294   -4.7512934536    1.1654449462
H        2.9102456287   -5.1223350579    3.4473660039
H        3.6554024473   -2.5001666992    0.1334517180
H        1.8803459879   -3.2988762848    4.6836052663
H        2.5860853198   -0.6501947069    1.3451563544
H       -0.2363441754   -4.7846818125    5.2253024131
H       -1.1394952157   -6.2342897859    3.4377645260
H       -1.9113680878   -1.3517090805    3.2432532661
H        1.6711919289    0.2821573815    3.3031761949
H        0.3527388978    0.4012083511    5.1759377961
29   

C        2.8480716412   -2.1961290088    0.3981605445
C        1.4892035426   -2.1444647005    0.7054601987
C        3.7858451235   -1.8886362086    1.3823645547
C        1.0691152271   -1.7926639028    1.9932226473
C        3.3631074219   -1.5369205086    2.6687513997
C       -0.7088836348   -4.1786416159    5.3647506581
C       -0.6499511288   -5.5528837703    5.1236575876
C       -1.4878987097   -3.8356429398    3.1090312640
C        1.9959776804   -1.4836688375    3.0097179211
C       -1.1134188261   -3.3027491257    4.3517658905
C       -0.9991531048   -6.0817163176    3.8753945244
C       -1.4268033777   -5.2115767826    2.8559781007
C        1.6517682300   -1.1550317751    4.3938911743
C        0.5039679391   -1.0449878674    5.0926639046
O       -1.6783370691   -0.7795726268    3.4766255664
O       -2.0412978605   -1.2536955948    5.8383529621
S       -1.1947589528   -1.5058982595    4.6623261826
Cl      -0.9046444034   -7.8095977472    3.6128329031
Cl      -1.8861395474   -5.8177836181    1.2794266545
H        3.1721091337   -2.4700791437   -0.5997484357
H        0.7535186996   -2.3732181730   -0.0575291927
H        4.8443980420   -1.9248278633    1.1505783579
H        0.0082193066   -1.7504989212    2.1582099744
H        4.1205464102   -1.3111384884    3.4110473403
H       -0.4430630902   -3.7917990918    6.3448263261
H       -0.3324778927   -6.2241929817    5.9129359581
H       -1.8400556248   -3.1767617137    2.3201629029
H        2.5178851390   -0.9047258380    4.9977997629
H        0.5606723463   -0.6501707980    6.0958863214
29   

C        2.5737042187   -2.6838901097    0.6592738249
C        1.2555810623   -2.2934618867    0.8950608598
C        3.5375835924   -2.4841017409    1.6474503012
C        0.9003021654   -1.7157603927    2.1189710360
C        3.1794533289   -1.9070694413    2.8708054357
C       -0.3692635303   -4.1254124082    5.3946496158
C       -0.1334509327   -5.4672091583    5.0870675211
C       -1.3049995540   -3.8081786648    3.1954784968
C        1.8521548331   -1.5215584822    3.1399369982
C       -0.9433452143   -3.2774990807    4.4426909691
C       -0.4703180439   -5.9901985739    3.8325022318
C       -1.0668827203   -5.1496543843    2.8753591094
C        1.5406387527   -0.9859316772    4.4666903558
C        0.3870297600   -0.8071182444    5.1389706228
O       -1.9173081465   -0.8440464125    3.7014057534
O       -2.0349696318   -1.4123832829    6.0648054929
S       -1.2495257199   -1.5206137405    4.8259750269
Cl      -0.1492964638   -7.6750375349    3.4845291822
Cl      -1.5155147956   -5.7490861755    1.2931194413
H        2.8478569527   -3.1335371138   -0.2886596262
H        0.5048356133   -2.4302148161    0.1247041337
H        4.5648302666   -2.7811210063    1.4682457257
H       -0.1209768480   -1.3886488882    2.2346791476
H        3.9483405512   -1.7759969682    3.6240415802
H       -0.1072568382   -3.7417764563    6.3769247603
H        0.3155702066   -6.1176023586    5.8282733966
H       -1.7801058402   -3.1720284558    2.4537971020
H        2.4138765485   -0.6576680565    5.0211662966
H        0.4082754340   -0.2335000257    6.0532994505
29   

C        2.3665367571   -2.8756689514    0.7558142741
C        1.1397760709   -2.2297743647    0.9151884653
C        3.3044395073   -2.8398222165    1.7888691508
C        0.8467038009   -1.5625741660    2.1097194451
C        3.0092240263   -2.1707641844    2.9819708976
C       -0.2860193129   -4.0824337869    5.3888581374
C        0.0353273143   -5.4020036079    5.0621141349
C       -1.1457724867   -3.7638831466    3.1594255743
C        1.7694638624   -1.5350269365    3.1722012215
C       -0.8641240218   -3.2440851694    4.4312328730
C       -0.2184440002   -5.9113729137    3.7823851521
C       -0.8206319525   -5.0816408422    2.8196342087
C        1.4908088535   -0.8916382573    4.4613580667
C        0.3362431087   -0.7085524134    5.1266550653
O       -1.9683295909   -0.8636079029    3.7076790208
O       -2.0442455484   -1.4450043816    6.0721067512
S       -1.2625267371   -1.5088142775    4.8276569029
Cl       0.2136096047   -7.5656938776    3.4093497139
Cl      -1.1648264058   -5.6632991202    1.2048906847
H        2.5918446721   -3.3962931684   -0.1683707020
H        0.4140386647   -2.2391176937    0.1095809635
H        4.2613129624   -3.3349498356    1.6673666802
H       -0.0974671389   -1.0391978558    2.1829807183
H        3.7498254405   -2.1654953902    3.7739121835
H       -0.0847066835   -3.7074480704    6.3886253308
H        0.4887905725   -6.0449336552    5.8070042057
H       -1.6189363806   -3.1340784487    2.4112411613
H        2.3722650294   -0.5375213731    4.9862006060
H        0.3328208479   -0.0893194516    6.0108380156
29   

C        2.1200496853   -2.9628666514    0.8077642420
C        1.0734938329   -2.0426705401    0.9002504207
C        2.9596217664   -3.1692272243    1.9048963928
C        0.8578452998   -1.3431125841    2.0927729486
C        2.7462723134   -2.4634529334    3.0944103861
C       -0.2636137004   -4.0372386669    5.3840446795
C        0.1404161021   -5.3345066561    5.0587381653
C       -0.9881461514   -3.7171835364    3.1073747860
C        1.6814244415   -1.5556637811    3.2119421285
C       -0.8137226161   -3.2079306037    4.4022722288
C       -0.0031994495   -5.8305442123    3.7567481567
C       -0.5811372969   -5.0124938813    2.7696982083
C        1.4503236379   -0.8541780291    4.4870516315
C        0.2923686732   -0.6566461929    5.1360410143
O       -1.9499660460   -0.8557549314    3.6337040410
O       -2.1081052678   -1.4401639778    5.9996120704
S       -1.2801018330   -1.4855040367    4.7844351901
Cl       0.5378258068   -7.4527910737    3.3850976163
Cl      -0.7883745313   -5.5785022124    1.1261898468
H        2.2817933374   -3.5120047152   -0.1132253528
H        0.4260215817   -1.8693761738    0.0478566436
H        3.7748172926   -3.8805855359    1.8351795454
H        0.0491124340   -0.6215330196    2.1373784704
H        3.4027159920   -2.6421673573    3.9385895745
H       -0.1419014543   -3.6698640647    6.3993675528
H        0.5759526769   -5.9691194840    5.8212334892
H       -1.4323763643   -3.0922559790    2.3377254906
H        2.3446290352   -0.5216284098    5.0041356562
H        0.2665843415   -0.0297613272    6.0142553130
29   

C        2.0209847056   -2.9779177164    0.8329864381
C        1.1113941278   -1.9175482804    0.8655146222
C        2.7467453825   -3.3050866981    1.9815408838
C        0.9200584754   -1.1942870457    2.0480045003
C        2.5583409362   -2.5763703823    3.1613949919
C       -0.2694114468   -4.0090804225    5.3802665446
C        0.1551612711   -5.3037193193    5.0701552959
C       -0.9163639036   -3.6953499753    3.0791186167
C        1.6295380704   -1.5256280174    3.2132946678
C       -0.7917869666   -3.1844568222    4.3792857814
C        0.0573872467   -5.8026736241    3.7650362220
C       -0.4932202686   -4.9900305989    2.7581175608
C        1.4232965841   -0.7666093958    4.4665115469
C        0.2768085410   -0.6301812098    5.1448541026
O       -1.9034348004   -0.8369342019    3.5614488890
O       -2.1521471027   -1.4168479841    5.9238808423
S       -1.2795987455   -1.4626291607    4.7401602984
Cl       0.6222699922   -7.4213728583    3.4137058408
Cl      -0.6458687856   -5.5622115669    1.1106837719
H        2.1630018006   -3.5448270801   -0.0804663327
H        0.5500133640   -1.6554954861   -0.0244269596
H        3.4532294799   -4.1271341103    1.9587021449
H        0.2105850717   -0.3725337734    2.0587688107
H        3.1244310080   -2.8437928113    4.0464927065
H       -0.1835835031   -3.6396602167    6.3984941333
H        0.5705841492   -5.9342379766    5.8472038993
H       -1.3331654443   -3.0717741391    2.2931549934
H        2.3186966788   -0.3770077220    4.9399815369
H        0.2399718765   -0.0296205811    6.0407816980
29   

C        1.9874173404   -3.0003515861    0.8745151353
C        1.1729492572   -1.8650582400    0.8371464285
C        2.6058759454   -3.3719570928    2.0715386425
C        0.9729124730   -1.1076883991    1.9966991920
C        2.4057448163   -2.6112979381    3.2290356091
C       -0.2600925583   -4.0229841177    5.3990049438
C        0.1633919243   -5.3144602283    5.0735825640
C       -0.9072016889   -3.6820008041    3.1013466039
C        1.5741603006   -1.4811642216    3.2071219398
C       -0.7828980852   -3.1866551806    4.4077812495
C        0.0622167769   -5.7991740289    3.7633050310
C       -0.4887850440   -4.9748270829    2.7661608495
C        1.3733435136   -0.6667190348    4.4319323276
C        0.2687478577   -0.6225120063    5.1838498702
O       -1.9159930354   -0.8425008081    3.6172682962
O       -2.1440978312   -1.4425487588    5.9781368151
S       -1.2798098688   -1.4713236370    4.7877110021
Cl       0.6240694362   -7.4147797490    3.3932055235
Cl      -0.6474375102   -5.5303744294    1.1135208697
H        2.1375071257   -3.5919978719   -0.0218066080
H        0.6924348720   -1.5713470187   -0.0894624569
H        3.2373266754   -4.2526648742    2.1035660266
H        0.3339068344   -0.2306893274    1.9593024054
H        2.8886773576   -2.9101205218    4.1525199929
H       -0.1740887519   -3.6657589517    6.4215719038
H        0.5792668178   -5.9543170873    5.8427789430
H       -1.3212009995   -3.0477871756    2.3223184950
H        2.2515846968   -0.1575649060    4.8155738997
H        0.2458649666   -0.0465845885    6.0961997137
29   

C        2.0008783015   -3.1045979077    0.9056339666
C        1.2681995105   -1.9229038484    0.7620575589
C        2.5022279714   -3.4623486012    2.1601607147
C        1.0360326527   -1.1028048521    1.8720927091
C        2.2661487818   -2.6412728269    3.2684747941
C       -0.2207353452   -4.0657481857    5.3690328090
C        0.1883897555   -5.3473683858    4.9895399129
C       -0.9545803836   -3.6573845624    3.1082354561
C        1.5203713477   -1.4595771127    3.1377556883
C       -0.7797992935   -3.2005961378    4.4230961941
C        0.0354103890   -5.7937290851    3.6705211604
C       -0.5527786653   -4.9405688745    2.7199209463
C        1.2976309745   -0.5725293548    4.3104135501
C        0.2614730286   -0.5972849427    5.1532333188
O       -2.0314673851   -0.8788825511    3.7707717809
O       -2.0448361521   -1.5168683925    6.1299563463
S       -1.2802176930   -1.5036126223    4.8727563376
Cl       0.5799874307   -7.3979503905    3.2316136738
Cl      -0.7778276495   -5.4482048482    1.0595492788
H        2.1776565473   -3.7431526718    0.0471617787
H        0.8778779655   -1.6413491964   -0.2095848623
H        3.0696778626   -4.3789639659    2.2750754354
H        0.4636492673   -0.1884363682    1.7525359280
H        2.6586198580   -2.9279752824    4.2375457360
H       -0.0985187980   -3.7398042863    6.3984292553
H        0.6316858085   -6.0103085302    5.7230891391
H       -1.3981193479   -3.0006730594    2.3648407999
H        2.1082884705    0.1095244603    4.5459244873
H        0.2687853336    0.0038679043    6.0494555974
29   

C        3.0349360541   -3.5152459197    2.1410921426
C        1.9431756077   -3.0684832730    1.3899589309
C        3.3210253640   -2.9209125941    3.3742499716
C        1.1432099450   -2.0243885056    1.8682491589
C        2.5189017799   -1.8790041445    3.8530743486
C        0.1962005072   -4.2880834176    4.3855040198
C        0.1131046078   -5.3007930818    3.4293548167
C       -1.8098596087   -3.2957254430    3.4888044611
C        1.4311536507   -1.4136391991    3.0994111207
C       -0.7574987676   -3.2649358101    4.4139097734
C       -0.9187118520   -5.3152772824    2.4845602869
C       -1.8957823158   -4.3026301302    2.5177149632
C        0.5522199119   -0.3315478905    3.6110391879
C       -0.3455938780   -0.4263983433    4.5971876953
O       -1.8624944034   -1.7344608557    6.3626948478
O        0.5498773729   -2.1141405364    6.5033449602
S       -0.6061242432   -1.8994496140    5.6153833407
Cl      -0.9669142559   -6.5848988650    1.2811158806
Cl      -3.2067055086   -4.2720296380    1.3584987231
H        3.6560492472   -4.3227401908    1.7696805001
H        1.7125278859   -3.5338514497    0.4381966860
H        4.1627799001   -3.2672202949    3.9635582445
H        0.2923887168   -1.6936197018    1.2829769760
H        2.7382974812   -1.4320135271    4.8179326041
H        1.0161154185   -4.2854366984    5.0993804990
H        0.8654168760   -6.0800752771    3.4099719622
H       -2.5686229589   -2.5192154584    3.5088612474
H        0.5569707297    0.5917424965    3.0406828513
H       -0.9805477398    0.4101058267    4.8458348147
29   

C        3.0799948995   -3.5025375535    2.1267462028
C        2.0582945911   -3.0169432081    1.3050049501
C        3.2537511359   -2.9708294505    3.4080229028
C        1.2137728298   -1.9989771614    1.7625588275
C        2.4052087014   -1.9575779159    3.8675262735
C        0.1762329208   -4.3086852524    4.4129487644
C        0.0872422878   -5.3169427726    3.4526813207
C       -1.8240547306   -3.3015060675    3.5205482371
C        1.3783338008   -1.4600618123    3.0493728685
C       -0.7699363755   -3.2786386557    4.4436098652
C       -0.9458494935   -5.3226608986    2.5091312472
C       -1.9178984709   -4.3054949589    2.5475920673
C        0.4625115355   -0.3997601923    3.5265953024
C       -0.3440239897   -0.4472087316    4.5943177991
O       -1.8525505130   -1.7263925953    6.3892530119
O        0.5579059875   -2.1186798280    6.5177927666
S       -0.6024483635   -1.9061353689    5.6350506049
Cl      -1.0024210105   -6.5875337403    1.3010862518
Cl      -3.2314478547   -4.2645098538    1.3916938868
H        3.7366567936   -4.2885580476    1.7707137190
H        1.9184786198   -3.4303075109    0.3124490013
H        4.0460254226   -3.3414625507    4.0489020057
H        0.4208685931   -1.6361609524    1.1179697613
H        2.5486010278   -1.5534889656    4.8650153867
H        0.9965808826   -4.3135234001    5.1262520376
H        0.8355896673   -6.0999251572    3.4290034436
H       -2.5771261278   -2.5195451148    3.5426518676
H        0.3552190676    0.4620827554    2.8758102684
H       -0.9511500203    0.4044032369    4.8607162222
29   

C        3.1689464527   -3.4158310194    2.0462332253
C        2.2470920152   -2.8246831859    1.1776742504
C        3.2050531637   -3.0293511046    3.3887706137
C        1.3589735640   -1.8526162543    1.6520216687
C        2.3131692816   -2.0620432442    3.8646471109
C        0.1131417753   -4.3359749573    4.4587775479
C        0.0098294863   -5.3603559362    3.5171269638
C       -1.8622978891   -3.3077833502    3.5357799085
C        1.3698433411   -1.4732091673    3.0057975980
C       -0.8131281138   -3.2874402761    4.4642720383
C       -1.0200162093   -5.3657355758    2.5698383274
C       -1.9721242311   -4.3293303111    2.5833503410
C        0.4228466449   -0.4465999240    3.4780043970
C       -0.3341251942   -0.4599271462    4.5854622072
O       -1.8963330699   -1.6879744993    6.3685874652
O        0.4997050844   -2.1272792081    6.5482459883
S       -0.6372526068   -1.9021024548    5.6388845269
Cl      -1.0996636369   -6.6563202481    1.3905750595
Cl      -3.2826217682   -4.2881773501    1.4239713296
H        3.8593389732   -4.1664077357    1.6776868737
H        2.2203539614   -3.1191579005    0.1345264626
H        3.9283133263   -3.4733892463    4.0636660269
H        0.6486215318   -1.4046810942    0.9660173487
H        2.3708086946   -1.7594041964    4.9048915026
H        0.9269520293   -4.3457247459    5.1794722473
H        0.7418357480   -6.1590506115    3.5129974792
H       -2.6012761090   -2.5121739084    3.5400050499
H        0.2611990319    0.3873903626    2.8025818750
H       -0.9102381663    0.4109998090    4.8584911968
29   

C        3.2150492214   -3.2063822397    1.8146982691
C        2.4537222781   -2.3918973494    0.9729653163
C        3.0626786515   -3.1068686905    3.1996480892
C        1.5313385569   -1.4898784386    1.5150425883
C        2.1396933752   -2.2064748513    3.7427216210
C       -0.0128553103   -4.4295136767    4.7469969053
C       -0.0996697015   -5.5370012772    3.9023135012
C       -1.7679408199   -3.3538795136    3.4915066678
C        1.3408195966   -1.4058988107    2.9079785998
C       -0.8395069920   -3.3194420349    4.5406056628
C       -1.0113847371   -5.5630458504    2.8408222215
C       -1.8582889574   -4.4581899039    2.6345058194
C        0.3671113208   -0.4334560458    3.4188229611
C       -0.4028945394   -0.4581983779    4.5205270722
O       -1.9937777836   -1.6287038913    6.3119730149
O        0.3923036830   -2.0198713844    6.5865670830
S       -0.7132748983   -1.8592906510    5.6265416831
Cl      -1.0804052705   -6.9666550017    1.7977441678
Cl      -3.0189950184   -4.4383425813    1.3245995014
H        3.9300855408   -3.9052253551    1.3949597479
H        2.5783692276   -2.4589340068   -0.1020018455
H        3.6684371445   -3.7199633069    3.8573714566
H        0.9505182981   -0.8668315248    0.8439728589
H        2.0778736587   -2.1218381306    4.8199869828
H        0.7024154896   -4.4298705811    5.5658659753
H        0.5480174420   -6.3896793441    4.0679402615
H       -2.4306238290   -2.5095438522    3.3285085338
H        0.2042641170    0.4250071501    2.7749845117
H       -0.9893702079    0.4122870034    4.7728653742
29   

C        3.4620708332   -3.0065233424    1.7369230263
C        2.7925324363   -2.0836190242    0.9314268613
C        3.1263360311   -3.1172966073    3.0875082989
C        1.7791146221   -1.2848498101    1.4726140760
C        2.1128951821   -2.3193096999    3.6298265670
C       -0.0948380404   -4.4990427067    4.8131095263
C       -0.2639742011   -5.6467841699    4.0369147487
C       -1.8964633168   -3.4403529950    3.6100247109
C        1.4007154955   -1.4117926201    2.8253416686
C       -0.9041050040   -3.3777303938    4.5976837093
C       -1.2427238362   -5.7030262973    3.0378492002
C       -2.0710551419   -4.5858848820    2.8232693113
C        0.3485800079   -0.5186111927    3.3172241204
C       -0.4185660792   -0.5318434065    4.4236353826
O       -1.9391843372   -1.5880225022    6.3384553534
O        0.4474113074   -2.0146356575    6.5273896774
S       -0.6950290840   -1.8740289891    5.6085684575
Cl      -1.4191406361   -7.1597828179    2.0840022431
Cl      -3.3156211644   -4.6031958384    1.5925688008
H        4.2484248762   -3.6252330287    1.3189252194
H        3.0600570600   -1.9848848326   -0.1146524257
H        3.6620939078   -3.8133861126    3.7230009714
H        1.2775889417   -0.5739743702    0.8253130441
H        1.9268665384   -2.4022728837    4.6894619779
H        0.6660123514   -4.4803577306    5.5896447322
H        0.3683809104   -6.5095540143    4.2098808647
H       -2.5484910183   -2.5881555253    3.4441824526
H        0.1412864895    0.3219394846    2.6626947748
H       -1.0366737302    0.3280665845    4.6336441257
29   

C        2.4745839179   -3.0687440508    0.1960150656
C        3.2869202005   -2.1549219673    0.8681619417
C        1.1476595790   -3.2354088771    0.5942751953
C        2.7752897848   -1.4186723338    1.9424313075
C        0.6346480107   -2.4991535737    1.6680051734
C       -0.3630708320   -3.5505177099    5.8165724293
C        0.0838952394   -4.8344075069    6.1365611854
C       -1.3061743727   -4.4104931425    3.7710086826
C        1.4434006004   -1.5927882359    2.3768946470
C       -1.0500732698   -3.3227616641    4.6195262745
C       -0.1506968546   -5.9149708431    5.2778123490
C       -0.8579168023   -5.7002549603    4.0808558880
C        1.0039482807   -0.7582949509    3.4965637351
C       -0.1472019334   -0.6230432418    4.1848405518
O       -2.3127491681   -1.6416312010    2.8825435129
O       -2.5232242696   -1.1545109791    5.2592968246
S       -1.6402239696   -1.6491597233    4.1922130847
Cl       0.4321690482   -7.5067174224    5.7137108030
Cl      -1.1892026465   -7.0154254066    2.9742226631
H        2.8683868854   -3.6395669958   -0.6376347061
H        4.3153580987   -2.0141954248    0.5550496351
H        0.5068893538   -3.9304663488    0.0631635030
H        3.4317993443   -0.7137034585    2.4401332107
H       -0.4045729412   -2.6437591568    1.9028609767
H       -0.1778334411   -2.7289821215    6.5031783323
H        0.6186138439   -5.0021663798    7.0640680532
H       -1.8675377443   -4.2607792571    2.8527084800
H        1.7612129640   -0.0578196322    3.8333892381
H       -0.2240037189    0.1910018677    4.8898403854
