52

C     -1.99405   -2.23471   -5.31641
C     -1.30149   -1.12191   -5.80742
C     -1.51178   -2.92372   -4.19906
C     -0.13086   -0.69615   -5.17655
C     -0.34464   -2.49280   -3.56257
C     -0.67440    2.53520   -1.80802
C     -0.73276    4.18022   -0.03237
C     -0.14433    1.59460   -0.90777
C      0.34924   -1.37482   -4.04531
C     -0.25218    3.25048    0.88854
C      0.03066    1.94356    0.43704
C     -0.95779    3.82170   -1.36859
C     -1.06301   -1.20287    3.61715
C      0.43165   -0.86134    3.57473
C     -1.83563   -0.44223    2.53262
C      1.02406   -1.10841    2.18042
C     -1.24151   -0.69184    1.13986
C      0.87486   -0.64810   -0.29315
C      0.23485    0.21514   -1.38549
C      0.26119   -0.36052    1.08224
C     -0.04305    3.59999    2.33872
C      1.57600   -0.87145   -3.33915
N      1.24326    0.38216   -2.53117
O      0.47238    1.05301    1.36979
Cl    -1.61634    4.99495   -2.48457
H     -2.90040   -2.57065   -5.81168
H     -1.66502   -0.59752   -6.68615
H     -2.04040   -3.79643   -3.82706
H      0.41982    0.15038   -5.58546
H      0.03152   -3.03695   -2.69904
H     -0.90469    2.26319   -2.83714
H     -0.96041    5.19081    0.29306
H     -1.47433   -0.97030    4.60462
H     -1.19648   -2.28310    3.46854
H      0.57908    0.18952    3.84598
H      0.98232   -1.45853    4.30849
H     -2.88956   -0.73824    2.53132
H     -1.81108    0.63261    2.74609
H      2.07679   -0.80613    2.15084
H      0.98591   -2.18000    1.94758
H     -1.35516   -1.75096    0.87437
H     -1.79406   -0.11687    0.38918
H      0.77112   -1.71018   -0.52776
H      1.94791   -0.42694   -0.22261
H     -0.61639   -0.28939   -1.84723
H     -0.65061    2.95703    2.98336
H      0.99974    3.44654    2.63346
H     -0.31014    4.64026    2.53388
H      1.98865   -1.59773   -2.63960
H      2.36267   -0.56969   -4.03545
H      0.87031    1.08887   -3.17496
H      2.09987    0.78991   -2.13619
