27

C     -2.79208   -1.36096   -0.11369
C     -1.74191   -0.88258    0.67253
C     -3.01669   -2.74809   -0.22674
C      0.51508   -3.05087    2.51189
C     -0.31984   -3.98469    1.94238
C     -1.27301   -3.23341    1.16775
C     -0.96927   -1.84581    1.31904
C     -0.25944   -5.47889    2.07288
C     -0.00067   -5.88423   -0.44665
C      0.52573   -6.20568    0.96012
N     -2.28427   -3.67817    0.39330
N      0.12951   -1.76496    2.14860
N      1.94958   -5.82894    1.02975
O     -1.37089   -6.21758   -0.60765
H     -3.43684   -0.67211   -0.65083
H     -1.54279    0.18258    0.76468
H     -3.82539   -3.11494   -0.85568
H      1.37393   -3.20331    3.15166
H      0.18902   -5.74513    3.03768
H     -1.27723   -5.88103    2.08186
H      0.56079   -6.48051   -1.17748
H      0.19083   -4.82609   -0.67132
H      0.36463   -7.28427    1.12216
H      0.59510   -0.91523    2.43234
H      2.45401   -6.26122    0.25589
H      2.35935   -6.21327    1.88026
H     -1.89372   -5.45584   -0.27190
