26   
Generated by ForceBalance from scan.xyz: Frame 1 of 24
C       -1.9147860321   -6.9841532844    0.0581764441
C       -1.0345664620   -6.5614910259   -0.9474167199
C       -2.2789680724   -6.0895823811    1.0654684461
C       -0.5327862517   -5.2615008904   -0.9471458236
C       -1.7804535616   -4.7801879977    1.0810094221
C       -0.9090672045   -4.3664560562    0.0655334278
C        0.7435893390    1.5055956570   -0.6869101325
C        0.5359826819    0.4487867321   -1.4819505151
C       -0.3976655351   -0.7422227553    0.3552778647
C        0.1011786636    1.5376120296    0.6820048099
C       -0.8705919407   -2.0900866133    0.8507825173
N       -0.2138837547    0.1968293484    1.2030167093
N       -0.2504998397   -0.6294370229   -1.0268306351
O       -0.3555115334   -3.1100505047   -0.0107853734
H       -2.3061111483   -7.9974383747    0.0554828061
H       -0.7387839832   -7.2476698252   -1.7368113607
H       -2.9547205978   -6.4059054313    1.8559063594
H        0.1516627315   -4.9210688060   -1.7191498191
H       -2.0648220629   -4.1099663720    1.8843107921
H        1.3736589930    2.3253688201   -1.0175913316
H        0.9546471139    0.3445827901   -2.4777985036
H        0.7553938280    2.0364127776    1.4061268119
H       -0.8299563119    2.1270618878    0.6635878839
H       -1.9679234569   -2.1095765726    0.8314345097
H       -0.5282692127   -2.2223971090    1.8805332410
H       -0.1535841202   -1.5153390279   -1.5095183561
26   
Generated by ForceBalance from scan.xyz: Frame 2 of 24
C       -2.0219358919   -6.8762069656   -0.0899102680
C       -1.0774485636   -6.4485016980   -1.0324201042
C       -2.3406348674   -6.0424660750    0.9836524483
C       -0.4688744868   -5.2003344269   -0.9080301234
C       -1.7332539948   -4.7883871984    1.1252461321
C       -0.8020026745   -4.3655776224    0.1683928528
C        0.6409547455    1.4716670873   -0.7978006122
C        0.5138138963    0.3458830679   -1.5111136395
C       -0.3261802736   -0.7706083176    0.4153671513
C        0.0014139345    1.5574294120    0.5702743252
C       -0.7033543025   -2.1077815619    1.0157949504
N       -0.2125593041    0.2393057406    1.1906400901
N       -0.1875091920   -0.7521656895   -0.9718507640
O       -0.1386563863   -3.1615677378    0.2262922304
H       -2.4972991841   -7.8476929415   -0.1906929907
H       -0.8159680048   -7.0886115647   -1.8710755039
H       -3.0628969287   -6.3664712512    1.7285272006
H        0.2661483603   -4.8568688830   -1.6307250938
H       -1.9757079470   -4.1678922614    1.9813111059
H        1.2056281555    2.3101853455   -1.1933122540
H        0.9376401378    0.2001799331   -2.4995393226
H        0.6190505801    2.1548563117    1.2506013370
H       -0.9705436122    2.0743263940    0.5161639766
H       -1.7967979288   -2.1887912209    1.0126966190
H       -0.3449609717   -2.1473061095    2.0474139546
H       -0.0199721613   -1.6627638665   -1.3841961454
26   
Generated by ForceBalance from scan.xyz: Frame 3 of 24
C       -2.0960025211   -6.7290516527   -0.2492863099
C       -1.0807282015   -6.2923769143   -1.1094880930
C       -2.4056896652   -5.9705281132    0.8819874552
C       -0.3939615660   -5.1062859313   -0.8497516275
C       -1.7192397156   -4.7824603472    1.1597050747
C       -0.7192770744   -4.3451573117    0.2815010869
C        0.5339032068    1.3875209645   -0.9255134859
C        0.4547303053    0.2029545563   -1.5441904882
C       -0.2678653757   -0.8041324373    0.4867318504
C       -0.0706330960    1.5439953912    0.4522376593
C       -0.5544662471   -2.1089998385    1.2024382712
N       -0.1942609243    0.2685533904    1.1774517927
N       -0.1638537471   -0.8888063771   -0.9008114559
O        0.0261478474   -3.2043061678    0.4806244229
H       -2.6324219592   -7.6507257901   -0.4559522173
H       -0.8247022722   -6.8753134767   -1.9904255659
H       -3.1809624876   -6.3056427837    1.5661825816
H        0.3980356203   -4.7585500031   -1.5075448063
H       -1.9523026599   -4.2241866557    2.0605167000
H        1.0348918688    2.2235556997   -1.4036036060
H        0.8585609852    0.0046454173   -2.5318035936
H        0.5323493209    2.2238888325    1.0650538941
H       -1.0704755612    2.0036802961    0.3907732216
H       -1.6409859469   -2.2316882929    1.2592372623
H       -0.1488756567   -2.0550781733    2.2149340411
H        0.0526077081   -1.8174095582   -1.2442866838
26   
Generated by ForceBalance from scan.xyz: Frame 4 of 24
C       -2.2412332543   -6.5601513244   -0.3593632223
C       -0.8518444326   -6.7301226064   -0.3625660766
C       -2.7758522418   -5.2834991434   -0.1609022307
C       -0.0046425862   -5.6386582714   -0.1572210850
C       -1.9376936017   -4.1807149504    0.0342349314
C       -0.5488407252   -4.3659559733    0.0459101794
C       -0.0679150736    1.4197143151   -0.8389315190
C       -0.2029182177    0.2718217146   -1.5142878337
C       -0.0910327953   -0.9375569829    0.5331666665
C       -0.1925466501    1.4143369454    0.6684757807
C        0.0539854575   -2.3094556316    1.1655445165
N        0.0721980629    0.0956218553    1.2663627417
N       -0.4357317556   -0.9333094961   -0.8187505021
O        0.3405919700   -3.3166866830    0.1826806212
H       -2.8984095979   -7.4113367888   -0.5138365821
H       -0.4242892237   -7.7173769138   -0.5174153162
H       -3.8529065103   -5.1373555852   -0.1701124346
H        1.0753426878   -5.7530215439   -0.1481724123
H       -2.3614299360   -3.1878427041    0.1549246579
H        0.1387831454    2.3447995909   -1.3682117614
H       -0.1294194536    0.1888969164   -2.5938671390
H        0.5011059858    2.1352787260    1.1167343571
H       -1.1997338540    1.7373189685    0.9782780897
H       -0.8549411817   -2.5586150818    1.7194348285
H        0.8863560865   -2.2738528358    1.8721504211
H       -0.2253330812   -1.7988077483   -1.3036852621
26   
Generated by ForceBalance from scan.xyz: Frame 5 of 24
C       -2.3771357030   -6.3630806395   -0.3514570268
C       -1.0088432738   -6.6330830965   -0.4757553012
C       -2.7938477100   -5.0728609159   -0.0123373014
C       -0.0659251300   -5.6280837909   -0.2527572823
C       -1.8601559312   -4.0533801419    0.2039560132
C       -0.4937629988   -4.3406155548    0.0920711252
C       -0.1951020670    1.3449226287   -0.8501778002
C        0.0158257049    0.2059898256   -1.5221875255
C       -0.0728744199   -1.0093198718    0.5233058870
C       -0.6198006462    1.2849934816    0.6007846495
C        0.2616048678   -2.3330111625    1.1971040242
N       -0.2627902243    0.0171054454    1.2592528518
N       -0.1217808683   -1.0326380457   -0.8664189303
O        0.4927074547   -3.3871786210    0.2541364605
H       -3.1086422695   -7.1483082761   -0.5201718151
H       -0.6721912912   -7.6324458522   -0.7392012340
H       -3.8537837587   -4.8483801536    0.0747106641
H        0.9997064667   -5.8218576501   -0.3340790394
H       -2.1981241834   -3.0478809122    0.4344904016
H       -0.0565942525    2.3030865260   -1.3415578409
H        0.3151542093    0.1609875446   -2.5643357180
H       -0.1651531730    2.1039666826    1.1708117326
H       -1.7088378421    1.4268335714    0.6940070681
H       -0.5239357505   -2.6007884514    1.9064761381
H        1.1931906756   -2.2050126285    1.7541487392
H        0.2628683202   -1.8621629725   -1.3025760278
26   
Generated by ForceBalance from scan.xyz: Frame 6 of 24
C       -2.4606250907   -6.1310124263   -0.3631370798
C       -1.1264858245   -6.4667324224   -0.6272877017
C       -2.7583423834   -4.8677230600    0.1526137049
C       -0.1038291207   -5.5533828584   -0.3715197568
C       -1.7435513083   -3.9372347388    0.4076919258
C       -0.4128475332   -4.2899417187    0.1495717573
C       -0.2842609354    1.2582623330   -0.8811019516
C        0.2635745281    0.2002269822   -1.4931022431
C       -0.0204583956   -1.0851573389    0.4940089020
C       -0.9949486680    1.0623840903    0.4405039478
C        0.4733043386   -2.3250453871    1.2218243796
N       -0.5523262606   -0.1399315336    1.1694603786
N        0.2202425995   -1.0622353916   -0.8744545042
O        0.6582605109   -3.4418485848    0.3475965377
H       -3.2556838199   -6.8448063750   -0.5593564300
H       -0.8794516020   -7.4465160524   -1.0279939460
H       -3.7902343001   -4.5914411665    0.3534635020
H        0.9366765699   -5.8010654497   -0.5611485567
H       -1.9996408393   -2.9527111752    0.7845368330
H       -0.2148346699    2.2454936636   -1.3271228395
H        0.7799728613    0.2471267015   -2.4464264357
H       -0.8475393819    1.9302448057    1.0937739968
H       -2.0837397490    0.9853101165    0.2879676034
H       -0.1968017571   -2.5613682257    2.0505047717
H        1.4660442536   -2.1135043360    1.6299159081
H        0.7664699100   -1.8261381529   -1.2520166156
26   
Generated by ForceBalance from scan.xyz: Frame 7 of 24
C       -2.5114155150   -5.9074732181   -0.4860152125
C       -1.1956573178   -6.2896063128   -0.7795483661
C       -2.7386535593   -4.7009795619    0.1784986412
C       -0.1249091775   -5.4766459014   -0.4107318466
C       -1.6742607078   -3.8709462653    0.5531455801
C       -0.3641190894   -4.2671338302    0.2566256509
C       -0.4238092020    1.0513162793   -0.9509169876
C        0.2434945417    0.0236927836   -1.4917107457
C        0.0145175953   -1.1895226059    0.5495860392
C       -1.1484909304    0.8565781537    0.3633641020
C        0.5919524526   -2.3458043129    1.3486351705
N       -0.6302494048   -0.2703931325    1.1596833414
N        0.3097468671   -1.2026724850   -0.8077316770
O        0.7615328580   -3.5333332602    0.5732056059
H       -3.3450771719   -6.5420862694   -0.7730547187
H       -1.0015741810   -7.2268624110   -1.2947963533
H       -3.7543876967   -4.3896566734    0.4084602696
H        0.9014459338   -5.7618687695   -0.6238843422
H       -1.8807464464   -2.9314270042    1.0530680721
H       -0.4438319949    2.0146114154   -1.4510192464
H        0.7769733273    0.0732644445   -2.4354031866
H       -1.0889302122    1.7625195361    0.9780001289
H       -2.2233140563    0.6834852407    0.1921015012
H       -0.0262640176   -2.5200547952    2.2326638307
H        1.6010477469   -2.0812703022    1.6766724003
H        0.9302035763   -1.9308434213   -1.1371781950
26   
Generated by ForceBalance from scan.xyz: Frame 8 of 24
C       -2.5200445980   -5.6718335417   -0.5928620179
C       -1.2157725262   -6.0654628427   -0.9193338468
C       -2.7120720514   -4.5514833975    0.2180818005
C       -0.1212355091   -5.3446342478   -0.4433566564
C       -1.6233616011   -3.8183459022    0.7060716634
C       -0.3249625526   -4.2193409449    0.3671426322
C       -0.5241647519    0.8684911028   -1.0406412763
C        0.2177506627   -0.1390812519   -1.5177312413
C        0.0503474185   -1.2526006101    0.5876977266
C       -1.2467514950    0.6964765943    0.2777569479
C        0.6975642753   -2.3204145221    1.4518144724
N       -0.6619168223   -0.3464842871    1.1391815798
N        0.3609342641   -1.3183675108   -0.7657309461
O        0.8232465169   -3.5873334712    0.8015958855
H       -3.3726135162   -6.2321296948   -0.9661258891
H       -1.0492670361   -6.9368819136   -1.5474709358
H       -3.7187290675   -4.2352892284    0.4793606953
H        0.8967214469   -5.6387384787   -0.6834684870
H       -1.8006651649   -2.9477338580    1.3267795571
H       -0.6073822379    1.7979925194   -1.5951475821
H        0.7548324717   -0.1062585193   -2.4600620728
H       -1.2560044565    1.6364474816    0.8420163034
H       -2.3051782092    0.4395998384    0.1097744401
H        0.1359481801   -2.3988724685    2.3868756978
H        1.7249037352   -2.0286128462    1.6865563577
H        1.0391439965   -2.0126433056   -1.0512214402
26   
Generated by ForceBalance from scan.xyz: Frame 9 of 24
C       -2.5190348754   -5.4568404627   -0.7033760040
C       -1.2176191740   -5.8592828150   -1.0277876199
C       -2.7058698324   -4.4219391534    0.2167205139
C       -0.1179951572   -5.2265640163   -0.4466265786
C       -1.6131146653   -3.7835955259    0.8136452829
C       -0.3164082212   -4.1849651624    0.4685365385
C       -0.6162444498    0.6992637114   -1.1042708841
C        0.1715366563   -0.2910674905   -1.5419679078
C        0.0832961535   -1.3078990615    0.6190112676
C       -1.3108361368    0.5596616328    0.2328440872
C        0.7822886457   -2.3012610717    1.5275699594
N       -0.6668522287   -0.4109465072    1.1347631794
N        0.3876702229   -1.4202897104   -0.7336702707
O        0.8268920014   -3.6414932713    1.0198358571
H       -3.3747479411   -5.9458856368   -1.1603619474
H       -1.0566040222   -6.6661757147   -1.7382377520
H       -3.7113913034   -4.1046849792    0.4811869539
H        0.8984608781   -5.5266628913   -0.6859298056
H       -1.7780410754   -2.9830915019    1.5261003820
H       -0.7572321941    1.5925188160   -1.7046505809
H        0.6927755145   -0.2789897028   -2.4936330617
H       -1.3568208190    1.5247376612    0.7511216180
H       -2.3580545593    0.2450305308    0.0956487004
H        0.2905457220   -2.2635520510    2.5039492456
H        1.8316994433   -2.0198498550    1.6533700434
H        1.0933575451   -2.0937015801   -1.0005181184
26   
Generated by ForceBalance from scan.xyz: Frame 10 of 24
C       -2.4814919262   -5.3032626343   -0.7842352921
C       -1.1770428818   -5.7315079006   -1.0565891365
C       -2.6907724761   -4.3107084023    0.1781420553
C       -0.0921514966   -5.1623951031   -0.3861598777
C       -1.6146632224   -3.7416838609    0.8661163998
C       -0.3119526673   -4.1619710036    0.5679211597
C       -0.6890715083    0.5775623519   -1.1290301022
C        0.1186962797   -0.4017579889   -1.5541916531
C        0.1342831882   -1.3401650735    0.6474468636
C       -1.3299633770    0.4705226191    0.2375058138
C        0.8769078958   -2.2841180918    1.5713851430
N       -0.6297237892   -0.4475093464    1.1517825383
N        0.4057573605   -1.4871752702   -0.7094873263
O        0.8043778061   -3.6782472598    1.2205404798
H       -3.3240055660   -5.7415046415   -1.3119891817
H       -1.0011960417   -6.5077275688   -1.7971154562
H       -3.7004676984   -3.9778404532    0.4050473214
H        0.9270580953   -5.4818698627   -0.5856492613
H       -1.7882045494   -2.9775433245    1.6161453678
H       -0.8857746268    1.4381320613   -1.7607057978
H        0.6041679692   -0.4116660398   -2.5245811054
H       -1.3834959436    1.4530714106    0.7212704577
H       -2.3727491220    0.1242223851    0.1516765747
H        0.4831866873   -2.1241793654    2.5787443399
H        1.9461963225   -2.0505081743    1.5701511498
H        1.1221125470   -2.1468508321   -0.9803581204
26   
Generated by ForceBalance from scan.xyz: Frame 11 of 24
C        0.1183953632   -5.5623918110    0.0215614756
C       -0.7731159181   -5.5436442447   -1.0567456882
C       -0.0682965679   -4.6776600492    1.0900560204
C       -1.8346955165   -4.6324505160   -1.0743842901
C       -1.1320118770   -3.7722873733    1.0876438094
C       -2.0057617662   -3.7427508669   -0.0064666170
C        1.2725122441   -0.6763021921    0.4009771935
C        0.8643107738   -1.4195432586   -0.6341921227
C       -1.4043596518   -0.9856764075   -0.0465424295
C        0.2697504205    0.2364855394    1.0679502121
C       -2.8283244118   -1.4550379964   -0.2405633932
N       -1.1090800658   -0.2761338509    0.9766261578
N       -0.4868117879   -1.3613175905   -1.0395176325
O       -3.0763351405   -2.8705500429   -0.0425969705
H        0.9463333887   -6.2660618523    0.0333587360
H       -0.6439995717   -6.2361380306   -1.8847836118
H        0.6178072206   -4.6911911262    1.9328754874
H       -2.5403776315   -4.6041343023   -1.9005021902
H       -1.2808986148   -3.0793316634    1.9091404173
H        2.2923735493   -0.7456068211    0.7651165769
H        1.4946304533   -2.1150609472   -1.1779596227
H        0.5086813080    0.3788115936    2.1270676082
H        0.2888808517    1.2401177850    0.6132875886
H       -3.1490510613   -1.2100234679   -1.2620319624
H       -3.4573548150   -0.9214965033    0.4708922387
H       -0.7878376116   -2.1186954618   -1.6413374898
26   
Generated by ForceBalance from scan.xyz: Frame 12 of 24
C        0.1144784109   -5.5908618194    0.0902245991
C       -0.7242336160   -5.5899413477   -1.0297790717
C       -0.1117400205   -4.6744354879    1.1234298908
C       -1.7698312065   -4.6660725228   -1.1260827292
C       -1.1631818629   -3.7580345147    1.0450867759
C       -1.9818266036   -3.7454204114   -0.0921427811
C        1.2949607950   -0.6671960879    0.3493412978
C        0.8591294219   -1.3788825786   -0.6967339490
C       -1.3906571161   -0.9813727062   -0.0243217846
C        0.3075420511    0.2163067768    1.0763858280
C       -2.8197481301   -1.4423425375   -0.1925873491
N       -1.0690242880   -0.3066322265    1.0140831792
N       -0.5042625742   -1.3158205078   -1.0581539341
O       -3.0449316077   -2.8744063779   -0.2181581237
H        0.9314401889   -6.3037221887    0.1610271006
H       -0.5643219941   -6.3053370781   -1.8325706115
H        0.5309609615   -4.6731286642    1.9999611237
H       -2.4318413227   -4.6490902486   -1.9877520578
H       -1.3411874593   -3.0471918496    1.8449447224
H        2.3257869969   -0.7416633623    0.6799735851
H        1.4763031541   -2.0518198294   -1.2823169467
H        0.5796081290    0.3273852837    2.1311566647
H        0.3043689682    1.2336517184    0.6528518510
H       -3.2159436750   -1.0550625931   -1.1392293592
H       -3.3961538704   -1.0243465301    0.6332770646
H       -0.8207752444   -2.0524300605   -1.6775588352
26   
Generated by ForceBalance from scan.xyz: Frame 13 of 24
C        0.0782411002   -5.6453445815    0.1616283039
C       -0.6988685802   -5.6463778155   -1.0023161772
C       -0.1814892057   -4.7025513076    1.1618945340
C       -1.7137465250   -4.7005245702   -1.1721596047
C       -1.2043759428   -3.7621848393    1.0116544631
C       -1.9595175967   -3.7542483062   -0.1687580749
C        1.3080080297   -0.6354321591    0.2869009836
C        0.8488668912   -1.3201793600   -0.7671634917
C       -1.3814586545   -0.9811659832   -0.0068830211
C        0.3327711678    0.2068539981    1.0769192807
C       -2.8096345151   -1.4558976444   -0.1471683677
N       -1.0362718565   -0.3378493091    1.0433938963
N       -0.5271045100   -1.2678103318   -1.0798401314
O       -2.9967052311   -2.8704716876   -0.3845252923
H        0.8727957195   -6.3751583002    0.2901674980
H       -0.5133312975   -6.3799733188   -1.7828547128
H        0.4119696868   -4.6986910936    2.0724914410
H       -2.3267227882   -4.6835237801   -2.0692787122
H       -1.4039928845   -3.0356034237    1.7917162050
H        2.3504992135   -0.7032891290    0.5801799842
H        1.4569797902   -1.9617535759   -1.3958829189
H        0.6396201717    0.2861584689    2.1249859423
H        0.2999213784    1.2378327776    0.6891232989
H       -3.2832273399   -0.9559616319   -0.9989384615
H       -3.3335302864   -1.1711341602    0.7675635443
H       -0.8564876909   -1.9869601391   -1.7129270680
26   
Generated by ForceBalance from scan.xyz: Frame 14 of 24
C        0.0129504535   -5.7216100364    0.2296873083
C       -0.7048078247   -5.7143367790   -0.9722817258
C       -0.2571008412   -4.7481016149    1.1961120554
C       -1.6706627646   -4.7342700076   -1.2111058730
C       -1.2312348030   -3.7690205520    0.9769861728
C       -1.9273798520   -3.7583457660   -0.2388594010
C        1.3215626710   -0.5408531476    0.2337678133
C        0.8505739474   -1.2080387895   -0.8265155501
C       -1.3620070023   -0.9660759613    0.0141096792
C        0.3464508748    0.2406183218    1.0847163281
C       -2.7811688249   -1.4782339410   -0.1003924918
N       -1.0055054952   -0.3460324122    1.0740039388
N       -0.5360323875   -1.1964086221   -1.0918378228
O       -2.9169694599   -2.8443346249   -0.5377761527
H        0.7697371811   -6.4795589109    0.4116944936
H       -0.5103048495   -6.4697591455   -1.7294183400
H        0.2897790979   -4.7481294443    2.1354385903
H       -2.2369302515   -4.7115528041   -2.1382452922
H       -1.4331014772   -3.0206570839    1.7351428551
H        2.3756128480   -0.5798051840    0.4886340354
H        1.4598275880   -1.8050353361   -1.4967397158
H        0.6851842958    0.2911777974    2.1247584438
H        0.2704046950    1.2835962003    0.7371254208
H       -3.3318249606   -0.8932545067   -0.8430459125
H       -3.2524998254   -1.3413972780    0.8765766998
H       -0.8677035816   -1.9040191481   -1.7367437954
26   
Generated by ForceBalance from scan.xyz: Frame 15 of 24
C       -0.1049361325   -5.8351491423    0.2834165859
C       -0.7794954273   -5.8124053582   -0.9437691716
C       -0.3363142777   -4.8155404662    1.2100839211
C       -1.6653878224   -4.7767110825   -1.2430202838
C       -1.2286271298   -3.7746764381    0.9288423585
C       -1.8855257032   -3.7554891469   -0.3082246100
C        1.3383944684   -0.3567249098    0.1907175128
C        0.8721872506   -1.0154947588   -0.8771561010
C       -1.3242130540   -0.9179696179    0.0314217524
C        0.3514694096    0.3343528514    1.1045718165
C       -2.7228028402   -1.4917161221   -0.0701118884
N       -0.9716726378   -0.3146016427    1.1019561792
N       -0.5197910987   -1.0816786828   -1.0988738714
O       -2.7949466148   -2.7870432293   -0.6833832630
H        0.5892793150   -6.6385334185    0.5133373407
H       -0.6138309740   -6.6013771496   -1.6729834333
H        0.1784535924   -4.8236240418    2.1673598540
H       -2.1980167763   -4.7435418819   -2.1895078853
H       -1.3915715657   -2.9916395361    1.6602271084
H        2.4018003519   -0.3370302542    0.4062739272
H        1.4945342331   -1.5474422121   -1.5889537082
H        0.7183571107    0.3502125190    2.1363920138
H        0.2181754066    1.3886604466    0.8129045726
H       -3.3448680729   -0.8550574154   -0.7050560987
H       -3.1474941432   -1.5044121738    0.9378640431
H       -0.8391593932   -1.7832666454   -1.7565309935
26   
Generated by ForceBalance from scan.xyz: Frame 16 of 24
C       -0.2596778168   -6.0234040452    0.3269622702
C       -0.9363102207   -5.9917489417   -0.8995766161
C       -0.3760430983   -4.9371783403    1.1961828487
C       -1.7129783082   -4.8883784470   -1.2505857951
C       -1.1545250193   -3.8217777209    0.8615742196
C       -1.8206263087   -3.8016993008   -0.3704464112
C        1.3415805002   -0.1205147647    0.1894630405
C        0.9115257397   -0.7851594521   -0.8902150675
C       -1.2723764679   -0.8788483878    0.0464946819
C        0.3204782697    0.4605231106    1.1421026580
C       -2.6301254369   -1.5466568446   -0.0593059195
N       -0.9528693491   -0.2813986753    1.1306026416
N       -0.4728961315   -0.9617630894   -1.0933888142
O       -2.6190938110   -2.7644512238   -0.8100680569
H        0.3474248516   -6.8824750513    0.5982988670
H       -0.8592511590   -6.8302050745   -1.5870651443
H        0.1436753285   -4.9468773662    2.1507641013
H       -2.2470161799   -4.8503746694   -2.1959939390
H       -1.2173440337   -2.9884251404    1.5512420681
H        2.4039241509   -0.0169266683    0.3858529445
H        1.5634688561   -1.2401450482   -1.6284794201
H        0.7015859200    0.4621603949    2.1690355142
H        0.1084874446    1.5135140658    0.8957070569
H       -3.3206217543   -0.8975756920   -0.6043520010
H       -3.0156947478   -1.6966163247    0.9530146399
H       -0.7542272573   -1.6664834993   -1.7651676119
26   
Generated by ForceBalance from scan.xyz: Frame 17 of 24
C       -0.4405746935   -6.2197332526    0.3688503022
C       -1.1371347602   -6.1702028728   -0.8461498478
C       -0.3989703533   -5.0832021722    1.1782198085
C       -1.7832677090   -5.0000483092   -1.2416479638
C       -1.0405078232   -3.8978811047    0.7953626885
C       -1.7363394513   -3.8645363602   -0.4199574708
C        1.3374747217    0.1459664162    0.2029541435
C        0.9601513961   -0.5323636457   -0.8880307095
C       -1.2016452995   -0.8323150443    0.0584641576
C        0.2793002397    0.6128267919    1.1778248625
C       -2.5000275360   -1.6086612334   -0.0593898628
N       -0.9274431457   -0.2329034662    1.1540452833
N       -0.4041223253   -0.8303041770   -1.0847696850
O       -2.3965631612   -2.7544186259   -0.9083261715
H        0.0620792885   -7.1321949053    0.6769058931
H       -1.1808594704   -7.0472398031   -1.4868500274
H        0.1420164116   -5.1062634625    2.1206950471
H       -2.3338072988   -4.9461103771   -2.1766283786
H       -0.9763953202   -3.0250433527    1.4350479648
H        2.3878390963    0.3441413400    0.3910701693
H        1.6440279633   -0.9075065292   -1.6423016821
H        0.6680015217    0.6197013038    2.2019598964
H       -0.0223123778    1.6504651157    0.9614528646
H       -3.2549953289   -0.9790801738   -0.5383983855
H       -2.8468554230   -1.8703484940    0.9432075402
H       -0.6314271041   -1.5483672505   -1.7633102324
26   
Generated by ForceBalance from scan.xyz: Frame 18 of 24
C       -0.6436314127   -6.4241872213    0.4153071003
C       -1.3342930133   -6.3332508209   -0.8001966304
C       -0.4556797493   -5.2723212318    1.1824167748
C       -1.8365378938   -5.1082210628   -1.2392277464
C       -0.9472812823   -4.0332096239    0.7532702989
C       -1.6455274551   -3.9600781563   -0.4591092714
C        1.2963565364    0.4197179176    0.1877308696
C        0.9704748880   -0.2636904813   -0.9166536500
C       -1.1364446922   -0.8018599396    0.0485435917
C        0.2156438503    0.7469878513    1.1942082248
C       -2.3559021742   -1.6942088286   -0.0777010222
N       -0.9054598260   -0.2088715648    1.1578100125
N       -0.3587374969   -0.6958351048   -1.1033485603
O       -2.1473625410   -2.7846978798   -0.9823375864
H       -0.2567285705   -7.3802047767    0.7566969845
H       -1.4889153364   -7.2217324527   -1.4070382558
H        0.0858589153   -5.3274017364    2.1232692339
H       -2.3822337413   -5.0215873636   -2.1744615046
H       -0.7692668804   -3.1461291840    1.3522345107
H        2.3237876551    0.7224253230    0.3632897209
H        1.6757114360   -0.5426077927   -1.6927852155
H        0.6206941616    0.7552663333    2.2121123582
H       -0.1875330420    1.7579591734    1.0213098373
H       -3.1741109208   -1.1161714927   -0.5183162983
H       -2.6605808909   -2.0316199897    0.9144595022
H       -0.5215930257   -1.4247629547   -1.7892867905
26   
Generated by ForceBalance from scan.xyz: Frame 19 of 24
C       -0.8509231143   -6.6328668536    0.4164707817
C       -1.5090582631   -6.4597292887   -0.8073648938
C       -0.5350367092   -5.5131731694    1.1908876603
C       -1.8574779093   -5.1817995580   -1.2480196888
C       -0.8692085504   -4.2252880053    0.7571415885
C       -1.5413505752   -4.0671013840   -0.4620510986
C        1.2426308202    0.7022733791    0.1397128723
C        0.9846813483   -0.0369718772   -0.9465120759
C       -1.0487637676   -0.7731792235    0.0466950706
C        0.1440077258    0.9289105112    1.1546022156
C       -2.1779459553   -1.7785852969   -0.0537661612
N       -0.8769885371   -0.1334330019    1.1407698781
N       -0.2891952040   -0.6180606170   -1.1114426612
O       -1.8782238596   -2.8325282521   -0.9808718931
H       -0.5854828245   -7.6287595417    0.7598712581
H       -1.7600785220   -7.3228183727   -1.4186361858
H       -0.0140835537   -5.6348014071    2.1371070166
H       -2.3770791234   -5.0291830273   -2.1895539661
H       -0.5928302567   -3.3619405348    1.3548497511
H        2.2305780002    1.1245697593    0.2941583445
H        1.7093161546   -0.2494826398   -1.7259042184
H        0.5569545855    0.9879772373    2.1678859565
H       -0.3593387902    1.8933389910    0.9780979631
H       -3.0632044176   -1.2754757517   -0.4576181882
H       -2.4170089147   -2.1544628951    0.9410909433
H       -0.3755855983   -1.3805164443   -1.7744918535
26   
Generated by ForceBalance from scan.xyz: Frame 20 of 24
C       -1.0625256769   -6.8042271829    0.4183029989
C       -1.6610545984   -6.5349630337   -0.8178828741
C       -0.6417700855   -5.7416401162    1.2241998657
C       -1.8490539036   -5.2167948374   -1.2403907345
C       -0.8127729240   -4.4173852995    0.8081370107
C       -1.4283341851   -4.1610484893   -0.4242282202
C        1.1769147151    0.9594270481    0.0757673882
C        0.9782003906    0.1713263032   -0.9883707492
C       -0.9555546842   -0.7409695742    0.0549913806
C        0.0761982283    1.0980523399    1.1040795548
C       -1.9863799442   -1.8486662867   -0.0003050652
N       -0.8334240353   -0.0605132262    1.1309050981
N       -0.2327790937   -0.5389963661   -1.1202214272
O       -1.5947741208   -2.8826081716   -0.9196988625
H       -0.9226827593   -7.8299833823    0.7477392509
H       -1.9915465374   -7.3526039680   -1.4533266433
H       -0.1643147079   -5.9400775223    2.1803007135
H       -2.3206694161   -4.9887753732   -2.1918783072
H       -0.4565733388   -3.5990205304    1.4272256334
H        2.1189934149    1.4834277762    0.2031307564
H        1.7087356369    0.0148275290   -1.7754889447
H        0.4961467612    1.2213587197    2.1086831102
H       -0.5237863057    2.0032443813    0.9157590181
H       -2.9292628237   -1.4384074979   -0.3810751747
H       -2.1573270285   -2.2282240886    1.0063329481
H       -0.2448099169   -1.3279184730   -1.7574752040
26   
Generated by ForceBalance from scan.xyz: Frame 21 of 24
C       -1.2155064877   -6.9358116637    0.3615462520
C       -0.6714061672   -6.3909832537   -0.8082022582
C       -1.8831340507   -6.0992654894    1.2593071136
C       -0.7843037147   -5.0254504297   -1.0705183928
C       -2.0120647882   -4.7290841630    1.0041579460
C       -1.4506456368   -4.1923711374   -0.1616043427
C        1.1603259951    1.1227724360   -0.4965941486
C        0.6673154173    0.2985641188   -1.4294745668
C       -0.7319753750   -0.7109184432    0.2087125736
C        0.4745479204    1.2094251010    0.8490821234
C       -1.6514981433   -1.8751190141    0.5217257169
N       -0.3051831758    0.0042273834    1.1782060657
N       -0.4600392682   -0.4970299841   -1.1412857463
O       -1.5556328984   -2.8655853625   -0.5128750146
H       -1.1221928126   -7.9983144643    0.5673424041
H       -0.1495983908   -7.0297731996   -1.5161543733
H       -2.3193672438   -6.5116176601    2.1654755288
H       -0.3603254883   -4.5880522217   -1.9700003391
H       -2.5585285032   -4.1000911619    1.6993992401
H        2.0466100607    1.7153901170   -0.7010129165
H        1.0931003492    0.1775156156   -2.4203943246
H        1.2079534968    1.3655704485    1.6484517189
H       -0.2014136828    2.0791710888    0.8883835330
H       -2.6895402186   -1.5273122079    0.5813329868
H       -1.3541873750   -2.2716549574    1.4929116071
H       -0.6364702721   -1.2978916524   -1.7368177161
26   
Generated by ForceBalance from scan.xyz: Frame 22 of 24
C       -1.4027812279   -7.0071209632    0.3464009523
C       -0.7568938225   -6.5134774685   -0.7948570493
C       -2.0041728805   -6.1102646027    1.2314065950
C       -0.7065400909   -5.1425293805   -1.0431014678
C       -1.9673195654   -4.7309034629    0.9920222875
C       -1.3088079760   -4.2484215071   -0.1462206964
C        1.0542433742    1.3013376319   -0.5319958253
C        0.6012189292    0.4472238290   -1.4579972812
C       -0.6478800796   -0.6942973640    0.2156978158
C        0.4099521889    1.3176766808    0.8364038045
C       -1.4485779676   -1.9364689856    0.5429666700
N       -0.2498533177    0.0463641657    1.1783580771
N       -0.4456667627   -0.4427629674   -1.1412205834
O       -1.2365851052   -2.9169190875   -0.4810526011
H       -1.4368028692   -8.0755023911    0.5396357495
H       -0.2838801079   -7.1995762562   -1.4927336448
H       -2.5154365882   -6.4793612103    2.1167845455
H       -0.2025576418   -4.7459366353   -1.9199208641
H       -2.4591966197   -4.0534780185    1.6817185051
H        1.8804432703    1.9681049382   -0.7582804038
H        1.0017907520    0.3710144668   -2.4637982053
H        1.1531844975    1.5319302086    1.6128367204
H       -0.3384947886    2.1236939460    0.9069524915
H       -2.5173372385   -1.6935395361    0.6009724968
H       -1.1109164529   -2.2935322458    1.5176015559
H       -0.5658855481   -1.2518613974   -1.7396409389
26   
Generated by ForceBalance from scan.xyz: Frame 23 of 24
C       -1.5984890915   -7.0406412146    0.2897106806
C       -0.8735428698   -6.5896747231   -0.8219232516
C       -2.1075253926   -6.1087511618    1.1952837188
C       -0.6588103628   -5.2273851667   -1.0212965232
C       -1.9025753628   -4.7355980302    1.0068122555
C       -1.1716986016   -4.2973078679   -0.1046465668
C        0.9486883216    1.4347212933   -0.5620081518
C        0.5790687495    0.5169485715   -1.4638658435
C       -0.5554241633   -0.6947762375    0.2410734564
C        0.3051479538    1.4245808226    0.8068331609
C       -1.2365632661   -1.9957648930    0.6036715376
N       -0.2308712201    0.1057699937    1.1831191937
N       -0.3773429263   -0.4610127952   -1.1221912409
O       -0.9228098941   -2.9763565974   -0.3903080274
H       -1.7625317760   -8.1032044313    0.4444502853
H       -0.4699888013   -7.3033815428   -1.5355548329
H       -2.6745638745   -6.4436874573    2.0600385885
H       -0.0942171285   -4.8641956349   -1.8753809832
H       -2.3171852353   -4.0311531945    1.7190438461
H        1.7074520598    2.1712380282   -0.8074850170
H        0.9852017357    0.4530377803   -2.4682302849
H        1.0244662034    1.7284533381    1.5758656582
H       -0.5164500762    2.1574888826    0.8584990821
H       -2.3239975743   -1.8493085647    0.6498813794
H       -0.8751294906   -2.2956837843    1.5901007788
H       -0.4244126754   -1.2910892091   -1.7015700405
26   
Generated by ForceBalance from scan.xyz: Frame 24 of 24
C       -1.7672199720   -7.0382507422    0.1912093034
C       -0.9555831328   -6.6143277248   -0.8702336773
C       -2.2004868846   -6.1036855514    1.1323857829
C       -0.5855530622   -5.2762906044   -0.9874102030
C       -1.8368255068   -4.7543332879    1.0284261196
C       -1.0270079887   -4.3426276710   -0.0374938309
C        0.8466162856    1.4979710525   -0.6211369557
C        0.5495320103    0.5170444478   -1.4823564309
C       -0.4676932261   -0.7159846568    0.2805819011
C        0.2152921064    1.4889916914    0.7533266298
C       -1.0400294736   -2.0518197500    0.6962097303
N       -0.2048091206    0.1459930127    1.1870994356
N       -0.3195587982   -0.5227297561   -1.0928057987
O       -0.6120368364   -3.0476695906   -0.2369981532
H       -2.0540550307   -8.0820727480    0.2809294381
H       -0.6081796759   -7.3305718847   -1.6103531234
H       -2.8285802794   -6.4178988893    1.9620085387
H        0.0457677567   -4.9347145239   -1.8028755267
H       -2.1843732756   -4.0497660059    1.7752215622
H        1.5395245124    2.2847063831   -0.9028185978
H        0.9532307188    0.4468423135   -2.4872753811
H        0.9111877225    1.8833667404    1.5025356327
H       -0.6651456752    2.1513495140    0.7839992263
H       -2.1369441518   -1.9946214103    0.6998252317
H       -0.6902063813   -2.2726430526    1.7079886718
H       -0.2986047384   -1.3773885426   -1.6370374081
