21

C      1.58437   -1.13508   -0.05476
C      0.66375   -0.47979    0.75854
C      2.57483   -1.94262    0.51380
C      0.69374   -0.62564    2.15579
C      1.69929   -1.43011    2.70585
C      2.63415   -2.08384    1.90018
C     -0.35067    0.11277    2.95417
C     -2.20554   -0.06640    4.72118
C     -1.04510    0.60160    5.38096
C     -0.79190   -0.42237    4.26843
O     -0.84900    1.12946    2.47677
F      1.80625   -1.56153    4.04562
Br     3.99080   -3.15621    2.70428
H      1.53996   -1.02096   -1.13381
H     -0.10305    0.16176    0.33685
H      3.30160   -2.45549   -0.10803
H     -2.74274   -0.83816    5.26370
H     -2.78974    0.52104    4.02082
H     -0.84698    1.63583    5.11909
H     -0.76043    0.30266    6.38478
H     -0.40057   -1.38316    4.57416
