44

C     -2.22893    2.43437   -2.93733
C     -2.44287    0.20797   -3.83755
C     -3.61706    2.55798   -2.88052
C     -3.83690    0.31481   -3.79902
C     -1.62138    1.25803   -3.40741
C     -4.39842    1.48975   -3.31342
C     -0.78605   -1.71487    1.01008
C      0.53886    1.46281   -2.06821
C     -1.90127    1.33698    0.41710
C     -2.37304   -0.04841   -0.06256
C     -0.90397    1.36939    1.58513
C      0.61936    0.26648   -4.37781
C      0.61344    1.75813   -4.60842
C     -0.17179   -0.80727   -1.29289
C      1.17483    0.71418    0.16038
C     -1.31136   -1.14821   -0.30587
C      0.35778    0.49464    1.44583
C     -0.11991    1.17948   -3.41799
N      0.09032   -0.92716    1.70372
N      0.46685    0.49042   -1.10084
O     -1.11688   -2.82896    1.41691
O      1.09834    2.54446   -1.86472
F     -5.75090    1.60128   -3.26174
H     -1.60130    3.25949   -2.61166
H     -2.00017   -0.71477   -4.20142
H     -4.09395    3.46124   -2.51233
H     -4.47972   -0.49558   -4.12876
H     -1.48196    1.89261   -0.41976
H     -2.79305    1.89811    0.72117
H     -3.08419   -0.46044    0.66387
H     -2.93540    0.09239   -0.99066
H     -0.58149    2.40811    1.72538
H     -1.40202    1.06690    2.51436
H      0.04156   -0.36178   -5.04920
H      1.53893   -0.18906   -4.02101
H      1.51473    2.32364   -4.39824
H      0.00050    2.14055   -5.41846
H      0.59230   -1.59477   -1.22559
H     -0.57134   -0.84346   -2.30021
H      1.53444    1.74263    0.13738
H      2.04603    0.04634    0.20056
H     -1.83601   -1.99947   -0.74822
H      1.03943    0.79216    2.24928
H      0.34764   -1.30263    2.60973
