18

C      2.70593   -2.35184    0.38515
C      1.40481   -2.03126    0.77197
C      2.19927   -1.52450    3.01614
C      3.49946   -1.81576    2.60133
C      3.76192   -2.23135    1.28894
C      1.17628   -1.62188    2.08338
C      5.74665   -1.83819    0.07183
N      4.57223   -1.67464    3.60520
O      4.25466   -1.86121    4.78419
O      5.69539   -1.36070    3.21201
O      5.04265   -2.64380    0.92927
F     -0.08274   -1.32111    2.46607
F      5.59978   -0.53050    0.36558
F      5.29755   -1.99009   -1.20821
Cl     7.45172   -2.29949    0.14432
H      2.91320   -2.70313   -0.61950
H      0.57438   -2.10876    0.07760
H      2.00200   -1.22683    4.03932
