16

C      1.84729   -0.92612   -0.10796
C      0.77369   -0.28629    0.51230
C      2.42386   -1.99350    2.00602
C      2.66506   -1.75917    0.65362
C      0.53669   -0.49772    1.86740
C      1.34764   -1.35067    2.61958
C      4.95497   -1.94471   -0.05622
O      3.69603   -2.47599    0.01954
F     -0.50467    0.12609    2.45054
Cl     4.99161   -0.37045   -0.96910
Cl     5.93726   -3.15552   -0.92719
Cl     5.68114   -1.64317    1.58382
Br     0.97696   -1.63985    4.46331
H      2.04493   -0.78730   -1.16437
H      0.11177    0.37274   -0.04050
H      3.05893   -2.66918    2.56614
