37

C     -2.82625   -6.10502   -0.02800
C     -2.37455   -1.55904    1.64999
C     -2.23205   -5.28063    0.92539
C     -1.98595   -2.87699    1.82113
C     -3.70595   -5.60876   -1.02961
C     -3.26561   -1.12284    0.61471
C     -2.48748   -3.88022    0.93295
C     -3.35578   -3.43265   -0.07119
C     -3.96235   -4.25058   -1.03600
C     -3.74600   -2.08475   -0.24551
C     -6.20385   -0.27727   -0.84442
C     -7.81071   -0.15950    0.56658
C     -4.80625   -3.35259   -1.88564
C     -9.55758    0.48643    2.22456
C     -8.63825   -1.89202    2.15676
C     -5.29579   -0.88399   -1.86495
C     -8.99966   -0.63490    1.33929
N     -6.10812    0.88456   -0.27875
N     -7.16574    0.96475    0.64300
N     -4.61131   -2.05352   -1.35322
O     -5.52529   -3.60929   -2.84010
O     -7.25650   -1.00465   -0.36532
H     -2.61101   -7.17002   -0.00634
H     -1.99124   -0.80554    2.33293
H     -1.56834   -5.71450    1.66978
H     -1.30729   -3.14613    2.62614
H     -4.15533   -6.27852   -1.75734
H     -3.54448   -0.07654    0.53913
H     -8.81880    0.79904    2.96784
H    -10.44891    0.12987    2.74971
H     -9.82782    1.36540    1.63391
H     -7.87632   -1.65688    2.90716
H     -8.25557   -2.69090    1.51574
H     -9.52644   -2.26430    2.67641
H     -5.86165   -1.21139   -2.74178
H     -4.58232   -0.11263   -2.16978
H     -9.76182   -0.92017    0.60209
