44

C     -2.47175   -1.26619   -2.63469
C     -4.03917   -0.19513   -1.14673
C     -3.09832   -2.49356   -2.43002
C     -4.68543   -1.41618   -0.93363
C     -2.92996   -0.10247   -1.99568
C     -4.19668   -2.54502   -1.57767
C     -0.87666   -1.39725    0.55427
C     -0.71167    1.12561   -1.93501
C      0.75425    0.45373    2.74026
C     -0.68020   -0.08969    2.70752
C      1.76793   -0.27794    1.85124
C     -2.55302    1.97790   -3.49177
C     -2.89676    2.53141   -2.12899
C     -1.27224    1.17024    0.50887
C      1.07548    1.01418   -0.29489
C     -1.35567   -0.16094    1.31695
C      1.42232   -0.36585    0.35026
C     -2.20146    1.18866   -2.25140
N      0.39933   -1.36919    0.06016
N     -0.33683    1.16813   -0.61028
O     -1.59270   -2.38867    0.42458
O      0.12027    1.04016   -2.84133
F     -4.81165   -3.73777   -1.36963
H     -1.60903   -1.20285   -3.29239
H     -4.41135    0.69054   -0.63871
H     -2.74338   -3.40191   -2.90648
H     -5.54183   -1.50051   -0.27172
H      0.74583    1.51763    2.47764
H      1.11304    0.41557    3.77531
H     -0.71072   -1.09139    3.15257
H     -1.30007    0.54841    3.34930
H      2.73452    0.23392    1.94127
H      1.91908   -1.29971    2.21950
H     -3.36609    1.59217   -4.09850
H     -1.72913    2.41988   -4.04179
H     -2.30926    3.36672   -1.75778
H     -3.94058    2.54919   -1.82948
H     -2.25676    1.40781    0.12116
H     -0.99771    1.98999    1.18379
H      1.38398    1.82589    0.37274
H      1.61479    1.12556   -1.23322
H     -2.41289   -0.37211    1.48652
H      2.32150   -0.73087   -0.15244
H      0.68152   -2.22893   -0.39528
