39

C     -1.30499   -0.39877   -2.03071
C     -2.15713    0.23833   -1.13325
C      1.42273   -3.58946    3.73034
C      0.06320   -0.48962   -1.76959
C      0.45600   -3.39662    2.74589
C      3.10102   -2.65974    2.29537
C     -1.64999    0.83948    0.02985
C      2.76392   -3.22849    3.52618
C      0.58507    0.02697   -0.57764
C     -0.27426    0.72874    0.28654
C      0.79941   -2.82726    1.51272
C      2.13722   -2.45516    1.29996
C     -2.63979    1.55617    0.91376
C      2.52046    0.72145    0.84429
C      1.58351    1.87573    1.12390
C      3.80233   -3.45168    4.60150
N      1.96330   -0.12570   -0.23655
O     -3.83085    1.55283    0.67457
O      4.10889   -1.42734   -0.09104
O      2.15673   -2.43113   -1.37926
O      0.26795    1.35038    1.40385
O     -0.11009   -2.61638    0.52247
O     -2.16313    2.21312    1.99574
S      2.67745   -1.69141   -0.23846
H     -1.70101   -0.82630   -2.94706
H     -3.22285    0.31927   -1.31866
H      1.12559   -4.03260    4.67829
H      0.72457   -0.99742   -2.45904
H     -0.57608   -3.68993    2.92919
H      4.12444   -2.36644    2.08352
H      3.50554    1.08436    0.54088
H      2.63470    0.14442    1.76865
H      1.89851    2.41729    2.01673
H      1.51559    2.56960    0.27898
H      3.87137   -4.51123    4.87072
H      4.79211   -3.12657    4.27128
H      3.55419   -2.89824    5.51395
H     -1.00271   -2.82384    0.84221
H     -1.18918    2.10776    2.04095
