36

C     -1.91872   -4.55194    2.79328
C     -1.48330   -3.23161    2.92459
C     -1.02144   -5.57375    2.46261
C      0.77214   -3.92111    2.39495
C     -0.13293   -2.90425    2.72526
C      0.31102   -5.22834    2.27156
C     -0.61199   -0.45481    2.24727
C      0.62310    1.49907   -2.86778
C     -0.46298    0.44192   -2.97740
C      1.01312   -0.21808   -0.93915
C     -0.75161    1.56342   -0.64505
C      0.17411   -1.14563   -0.04863
C     -1.54439    0.59024    0.23664
C      0.12413    0.80379   -1.62844
C      0.34196   -1.47117    2.88246
N     -0.63994   -0.36546    0.88223
O     -1.34140    0.23156    2.97008
F      1.20357   -6.20224    1.94738
H     -2.96668   -4.79282    2.95027
H     -2.18959   -2.44748    3.18319
H     -1.33648   -6.60688    2.35400
H      1.82670   -3.71285    2.23407
H      1.61536    1.24768   -3.23361
H      0.33962    2.53711   -3.02108
H     -1.47313    0.77248   -3.20460
H     -0.19672   -0.51582   -3.41714
H      1.75679    0.29812   -0.31742
H      1.55976   -0.81777   -1.67611
H     -1.44692    2.22361   -1.17602
H     -0.12626    2.19612   -0.00208
H     -0.49645   -1.74903   -0.67610
H      0.80914   -1.84153    0.49388
H     -2.09317    1.10992    1.02065
H     -2.26181    0.03038   -0.37954
H      0.36935   -1.20591    3.94225
H      1.35882   -1.36366    2.49385
