51

C      1.68265    2.35223   -3.38906
C      0.38049    4.37635   -3.71214
C      0.43050    3.03463   -3.29796
C     -0.82015    5.07221   -3.77301
C     -1.98446    4.34541   -3.43034
C     -0.79149    2.41275   -2.89724
C     -0.58187   -0.00548    0.55461
C     -0.14706   -2.86628    0.24759
C      0.68130    1.26983    4.57314
C      1.40785    1.24902    3.24483
C      0.39312   -1.92376   -0.82332
C     -1.82677   -0.78358   -1.46028
C     -0.01233   -2.20933    1.61477
C     -2.17854    0.60373   -1.99492
C      0.23800    0.42277   -1.78574
C      0.59106    0.05109    3.67927
C     -0.40840   -0.61771   -0.84626
C     -0.88205    6.51554   -4.20991
C     -3.34515    4.99009   -3.52025
C     -0.71626   -0.25174    2.97405
N      2.71722    1.82364   -3.50874
N     -1.95993    3.07933   -3.00993
N     -0.87707    1.13958   -2.41622
N     -0.54360   -0.84309    1.63975
O     -0.82947    1.20051    0.67050
H      1.30868    4.85988   -4.00602
H     -1.19762   -3.10418    0.04707
H      0.40452   -3.81217    0.25378
H      1.26650    1.19376    5.48496
H     -0.19940    1.90109    4.65561
H      1.00468    1.85282    2.43852
H      2.49040    1.15958    3.25709
H      1.44861   -1.70337   -0.61514
H      0.35720   -2.38790   -1.81511
H     -2.56712   -1.14437   -0.74225
H     -1.76932   -1.50714   -2.28163
H     -0.54842   -2.78893    2.37493
H      1.04669   -2.19481    1.91076
H     -2.87164    0.57208   -2.83884
H     -2.61451    1.23856   -1.21823
H      0.87889    1.11178   -1.23190
H      0.85072   -0.08632   -2.53627
H      1.15356   -0.81885    4.01222
H     -1.50223    6.64410   -5.10474
H     -1.30879    7.15669   -3.42974
H      0.11671    6.89597   -4.44115
H     -3.54954    5.34365   -4.53756
H     -4.11366    4.27219   -3.23124
H     -3.41048    5.86388   -2.86137
H     -1.29107    0.66526    2.84539
H     -1.31511   -0.94930    3.57270
