16

C      1.75904   -1.13250   -0.07501
C      0.74917   -0.43841    0.59066
C      2.84531   -1.64682    0.64453
C      0.77794   -0.22186    1.97889
C      1.87436   -0.72972    2.71135
C      2.89250   -1.39859    2.01218
C     -0.40002    0.51651    2.57997
O     -1.31021    0.91550    1.88346
O      1.93455   -0.52108    4.06186
O     -0.41855    0.71524    3.91416
I      4.19182   -2.76617    3.31874
H      1.70490   -1.27998   -1.14955
H     -0.10782   -0.04923    0.05081
H      3.63559   -2.20430    0.15285
H      2.64052   -1.08793    4.44001
H      0.37622    0.33032    4.33472
