65

C      3.44038    4.06104   -1.76622
C      3.44390    3.07633   -1.05426
C      3.77480    1.43378   -6.27447
C      3.48385    2.21040   -5.15433
C      4.02431    6.37973   -2.43555
C      3.27916    7.21929   -4.56015
C      3.38883    5.14988   -2.68719
C      1.52761    3.08527   -6.30542
C      2.63244    6.01220   -4.84830
C      2.96399    1.46215   -7.41814
C      3.98148    7.42210   -3.36293
C      2.36307    3.03710   -5.18891
C      2.69187    4.98547   -3.89821
C      1.82464    2.27973   -7.41816
C      0.34126    4.00456   -6.27911
C      1.93681    5.85047   -6.18160
C      2.53690    0.20808   -1.93670
C      1.33554    0.94996   -1.28612
C      3.78945    0.60924   -1.11122
C      1.87327    1.50536    0.04549
C      3.35318    1.84005   -0.27000
C      4.68510    8.73346   -3.09803
C      5.85099    3.21687  -10.30082
C      3.43245    2.84820  -10.93802
C     -0.07377    1.44365   -8.56537
C      4.61136    1.25791   -9.32300
C      3.36477    0.66548   -8.64103
C      4.48289    2.70607   -9.82614
O     -0.80492    3.62857   -6.38941
O      2.00794    3.79238   -4.07902
O      0.59278    5.32908   -6.09246
O      3.63046   -0.67900   -8.19584
O      1.03499    2.36932   -8.54411
H      4.63803    0.77530   -6.26613
H      4.09999    2.18694   -4.26089
H      4.55655    6.50403   -1.49647
H      3.22523    8.02841   -5.28670
H      1.81970    6.83073   -6.64714
H      2.52900    5.22839   -6.85878
H      2.39853   -0.87708   -1.91887
H      2.64300    0.49608   -2.98531
H      1.01869    1.77859   -1.92571
H      0.46849    0.29946   -1.13944
H      4.06657   -0.19503   -0.42081
H      4.66386    0.82262   -1.73149
H      1.31338    2.36946    0.41233
H      1.85462    0.73233    0.82359
H      3.95370    1.93809    0.64077
H      5.64005    8.78256   -3.63473
H      4.08022    9.58374   -3.42830
H      4.89756    8.86392   -2.03349
H      6.21862    2.62380  -11.14748
H      5.78842    4.25986  -10.63008
H      6.59939    3.15994   -9.50242
H      3.67690    2.19708  -11.78729
H      2.42959    2.59745  -10.58435
H      3.40241    3.87814  -11.31065
H     -0.56662    1.59082   -9.52803
H     -0.76652    1.66709   -7.75085
H      0.28889    0.41191   -8.48656
H      4.87434    0.61269  -10.17559
H      5.44163    1.18984   -8.60957
H      2.53291    0.65781   -9.35096
H      4.16807    3.32872   -8.97829
H      3.98715   -1.17171   -8.95235
