41

C      4.41259   -2.69903   -6.08417
C      5.18041   -1.79424   -8.10783
C      3.80661   -3.49959   -4.97029
C     -0.19292   -1.95662   -0.61748
C      0.37938   -1.20091   -1.82468
C     -0.06180   -3.47513   -0.79973
C      1.83088   -1.61327   -2.10873
C      1.39030   -3.88351   -1.08604
C      1.96623   -3.13239   -2.29674
C      8.03725   -1.01591  -10.95866
C      7.87215   -2.87310   -9.21903
C      3.42136   -3.55868   -2.54074
C      7.44282   -1.46760   -9.62388
N      5.04507   -1.56397   -5.91295
N      5.48831   -1.03140   -7.09405
N      4.00864   -2.97038   -3.74087
O      3.19689   -4.54316   -5.21083
O      5.15118   -2.60468  -10.63054
S      4.29507   -3.24194   -7.73192
S      5.57912   -1.38723   -9.83242
H     -1.24287   -1.68259   -0.46111
H      0.34958   -1.65310    0.28891
H     -0.23442   -1.41528   -2.71016
H      0.32297   -0.11871   -1.65904
H     -0.42943   -3.99884    0.09043
H     -0.69650   -3.79536   -1.63709
H      2.19930   -1.08818   -2.99796
H      2.46688   -1.29905   -1.26717
H      2.00723   -3.66717   -0.20123
H      1.45172   -4.96547   -1.25544
H      1.39069   -3.42475   -3.18525
H      7.76574   -1.71025  -11.75961
H      7.69981   -0.01264  -11.23761
H      9.12904   -0.99629  -10.88250
H      7.45910   -3.61180   -9.91238
H      7.54811   -3.12383   -8.20579
H      8.96430   -2.94410   -9.25165
H      3.47519   -4.64521   -2.64781
H      4.04823   -3.27147   -1.68954
H      7.64411   -0.73606   -8.83423
H      4.48296   -2.07564   -3.69705
