48

C    -11.21313    5.57559   -5.13593
C    -11.91066    4.34139   -5.04421
C     -3.69870   -0.60154   -0.15683
C     -9.93562    5.69075   -4.62975
C     -7.99440    4.62558   -3.46947
C    -11.32297    3.24421   -4.45000
C     -4.25899   -1.87196    0.02265
C     -4.42131    0.41888   -0.76645
C     -7.45480    3.50116   -2.88578
C     -6.32888   -1.07880   -0.99052
C     -9.30438    4.57734   -4.01147
C    -10.00719    3.33341   -3.91917
C     -5.57505   -2.10160   -0.39258
C     -5.73918    0.17420   -1.18852
C     -8.23664    2.31504   -2.84582
C     -5.53946   -5.70692   -6.39361
C     -7.72426    1.03795   -2.21609
C     -5.03765   -5.02585   -5.11575
C     -6.11261   -4.97815   -4.02099
C     -5.59178   -4.29166   -2.75809
N     -9.45824    2.22744   -3.33877
N     -6.16783   -3.38009   -0.18087
O     -7.06289   -5.59747   -0.93809
O     -7.99189   -3.45608   -1.98106
O     -6.38046    1.22903   -1.77369
S     -6.87085   -4.24546   -1.46862
H    -11.69267    6.42922   -5.60752
H    -12.91726    4.26557   -5.44724
H     -2.68010   -0.41448    0.17207
H     -9.39712    6.63358   -4.69712
H     -7.42673    5.55246   -3.51915
H    -11.84004    2.29248   -4.37003
H     -3.68044   -2.67125    0.47954
H     -3.99343    1.40448   -0.92122
H     -6.45821    3.49942   -2.46088
H     -7.34966   -1.28651   -1.28103
H     -6.40315   -5.17685   -6.81006
H     -4.75904   -5.73103   -7.16112
H     -5.84710   -6.73971   -6.19569
H     -8.37020    0.76893   -1.37125
H     -7.77669    0.22656   -2.95176
H     -4.15482   -5.55771   -4.73823
H     -4.70862   -4.00482   -5.34793
H     -6.43670   -5.99522   -3.77547
H     -6.99231   -4.43854   -4.38628
H     -4.74269   -4.82470   -2.32047
H     -5.30850   -3.25213   -2.94443
H     -5.61340   -4.01693    0.38699
