29   
Generated by ForceBalance from scan.xyz: Frame 1 of 24
C       -1.1106400214    0.8650944373    7.7645234783
C        0.2213084149    1.0905104353    7.3908143945
C       -1.9483019442    0.1650824961    6.8946461540
C        0.7026258586    0.6247724440    6.1691972777
C       -1.4781757210   -0.3092179917    5.6633652227
C       -0.1432120711   -0.0805725588    5.2964707163
C        0.6770014361    0.2478906426    0.6626472136
C        1.5108400868   -0.8081489595    1.4020598485
C       -0.2857235701    0.9644707664    1.6202004300
C        0.6137436069   -1.8031020885    2.1523108381
C       -1.1863379340   -0.0330872100    2.3627959641
C       -0.3669494508   -1.1039232307    3.0964729765
O        0.4409940663   -0.5140161689    4.1379536598
H       -1.4860429319    1.2306112949    8.7161520237
H        0.8891007530    1.6335922912    8.0550077998
H       -2.9845445637   -0.0181982277    7.1681724747
H        1.7330395352    0.7908791781    5.8677792915
H       -2.1555696847   -0.8481057707    5.0113145245
H        0.0984361879   -0.2390138730   -0.1355216688
H        1.3352540675    0.9753322513    0.1734572408
H        2.1522105167   -1.3501604385    0.6974686371
H        2.1739731060   -0.3126170490    2.1202903219
H        0.2907870161    1.5395351171    2.3544481810
H       -0.9064212348    1.6824820335    1.0721239423
H        0.0256003291   -2.3874225757    1.4327651587
H        1.2169141409   -2.5120183270    2.7291953777
H       -1.8365374652    0.4941623951    3.0674902221
H       -1.8434676889   -0.5468853474    1.6481636085
H       -1.0283972953   -1.8561490611    3.5433928039
29   
Generated by ForceBalance from scan.xyz: Frame 2 of 24
C       -1.0804216863    0.7037330927    7.8933133435
C        0.2552190667    0.9337773044    7.5351948726
C       -1.9482412847    0.1513914753    6.9500964264
C        0.7119457504    0.6119566450    6.2591565845
C       -1.5045956606   -0.1732989322    5.6615052820
C       -0.1638302411    0.0519119779    5.3131618691
C        0.6747579267    0.1417772976    0.5551147324
C        1.5316546291   -0.7925092814    1.4219198613
C       -0.3258721920    0.9316341799    1.4115594859
C        0.6543259264   -1.7285891143    2.2654120870
C       -1.2074969758   -0.0038299767    2.2519744150
C       -0.3665949816   -0.9597619854    3.1072266099
O        0.3889709876   -0.2211205942    4.0926649247
H       -1.4354973790    0.9539180245    8.8890234761
H        0.9462722317    1.3635831878    8.2561472314
H       -2.9890712920   -0.0276178693    7.2086572669
H        1.7455749499    0.7798651103    5.9701492330
H       -2.2093237701   -0.5857339031    4.9489728383
H        0.1256094586   -0.4537422471   -0.1883257915
H        1.3163915745    0.8303743617   -0.0068985419
H        2.2067511972   -1.3848477157    0.7934959108
H        2.1614482908   -0.1940389663    2.0902826152
H        0.2210992789    1.6037889685    2.0831155318
H       -0.9584828852    1.5624282719    0.7766433537
H        0.0991210276   -2.4086457009    1.6059213824
H        1.2672120179   -2.3476978510    2.9287234495
H       -1.8777214325    0.5778061014    2.8933889412
H       -1.8426629641   -0.6103503864    1.5921046609
H       -1.0101578871   -1.6801042137    3.6245558766
29   
Generated by ForceBalance from scan.xyz: Frame 3 of 24
C       -1.0145366098    0.5388008722    7.9812635241
C        0.3101546667    0.7849260692    7.5962799169
C       -1.9325968546    0.1129715635    7.0189398193
C        0.7113768798    0.5982523577    6.2743218237
C       -1.5457321713   -0.0706273280    5.6858313899
C       -0.2135943214    0.1639201059    5.3108497731
C        0.7013923999    0.0532213682    0.4943490041
C        1.5459540394   -0.7680370095    1.4801567321
C       -0.3514285042    0.8957311397    1.2301454709
C        0.6590437193   -1.6440691121    2.3765153646
C       -1.2441776310    0.0208601203    2.1225375144
C       -0.4166526122   -0.8254082155    3.0950080029
O        0.2652564854    0.0386827064    4.0355948416
H       -1.3242003431    0.6809062226    9.0128268801
H        1.0376921570    1.1182351296    8.3322441752
H       -2.9670706047   -0.0711609818    7.2985641694
H        1.7366353353    0.7780489113    5.9635955346
H       -2.2858846539   -0.3748582022    4.9537806495
H        0.1966652347   -0.6272746046   -0.2064622378
H        1.3481588636    0.7009171249   -0.1088877247
H        2.2617858169   -1.3968306484    0.9381905559
H        2.1316069626   -0.0894775811    2.1112558629
H        0.1519369298    1.6431647380    1.8545123855
H       -0.9710894794    1.4452420729    0.5122806271
H        0.1517397849   -2.4033380291    1.7662235846
H        1.2586208399   -2.1749260427    3.1233477861
H       -1.9500109531    0.6406858389    2.6863290826
H       -1.8397669901   -0.6602015374    1.4994661680
H       -1.0652860335   -1.5090334977    3.6519736112
29   
Generated by ForceBalance from scan.xyz: Frame 4 of 24
C        7.3978453682    3.7700663486   -1.5435036218
C        6.7998587156    4.2795786921   -0.3841564877
C        6.6803061852    2.8762614608   -2.3433228008
C        5.5094459165    3.8917374550   -0.0211950417
C        5.3816417386    2.4881184447   -1.9962516247
C        4.7953638944    2.9892970177   -0.8235962394
C        0.7502209270   -0.5448651613   -0.3741145497
C        1.0848485165    0.0973018599   -1.7282233472
C        1.9935088791   -0.6308455492    0.5229185824
C        1.7501460708    1.4705256472   -1.5491843527
C        2.6552455537    0.7447782780    0.6964496222
C        2.9881016968    1.3703253525   -0.6593568492
O        3.5169495805    2.6946353253   -0.4272606319
H        8.4046705938    4.0695434194   -1.8209325699
H        7.3445231548    4.9775922016    0.2468490211
H        7.1253598964    2.4838543047   -3.2544566955
H        5.0358486043    4.2724247324    0.8791743133
H        4.8283544396    1.8191528683   -2.6479085252
H        0.3213591854   -1.5425312590   -0.5240255836
H       -0.0180825496    0.0567622397    0.1304148726
H        1.7614783010   -0.5659452551   -2.2850615456
H        0.1797179074    0.1997346095   -2.3373901869
H        1.7300149818   -1.0427493376    1.5036712254
H        2.7148611423   -1.3288642076    0.0757510314
H        2.0277716505    1.9008864203   -2.5182560221
H        1.0479174125    2.1704233179   -1.0794405657
H        1.9781946926    1.4228171074    1.2308015287
H        3.5706914948    0.6672496088    1.2934561543
H        3.7487088390    0.7547901693   -1.1519733913
29   
Generated by ForceBalance from scan.xyz: Frame 5 of 24
C        7.3168735613    3.8575697132   -1.6967105923
C        6.7900562356    4.3686277721   -0.5032434905
C        6.5918029566    2.8932516409   -2.4004518448
C        5.5646606945    3.9146597146   -0.0169659914
C        5.3561386458    2.4353600111   -1.9277387928
C        4.8415314602    2.9402005736   -0.7233522559
C        0.7145588846   -0.5097933417   -0.4686960854
C        1.1938371500    0.1440415561   -1.7724858441
C        1.8711637918   -0.6737655663    0.5277310238
C        1.9051353041    1.4784547295   -1.5007231168
C        2.5800785380    0.6633304181    0.7911866617
C        3.0603486028    1.2975354316   -0.5147516561
O        3.6353003658    2.5793664139   -0.1856857804
H        8.2737400277    4.2092506613   -2.0721341354
H        7.3402676827    5.1209202366    0.0565805097
H        6.9804832355    2.4954065455   -3.3347440808
H        5.1482059786    4.2966068936    0.9106858828
H        4.8003432595    1.7071676695   -2.5086391509
H        0.2543137507   -1.4822085101   -0.6789891095
H       -0.0654497385    0.1177773744   -0.0164294271
H        1.8837656975   -0.5389433478   -2.2876003833
H        0.3501428951    0.3047094195   -2.4530852710
H        1.5058363478   -1.0920706237    1.4724232336
H        2.5947106683   -1.3968323947    0.1262987857
H        2.2759305753    1.9192780833   -2.4330044061
H        1.2006145474    2.1991514482   -1.0673850352
H        1.8923185208    1.3633736866    1.2817862774
H        3.4351601527    0.5287132610    1.4623431050
H        3.8329785935    0.6547900464   -0.9521710577
29   
Generated by ForceBalance from scan.xyz: Frame 6 of 24
C        7.2087017813    3.9494483133   -1.8305148118
C        6.7174342966    4.4735250207   -0.6267916671
C        6.5342173439    2.8837446480   -2.4283538399
C        5.5775297182    3.9373519039   -0.0318386168
C        5.3839956290    2.3369020740   -1.8448284464
C        4.9041835087    2.8612998067   -0.6347577230
C        0.6820763387   -0.4362200748   -0.5489986898
C        1.2862839750    0.2228245123   -1.7969805954
C        1.7585459831   -0.7078671874    0.5116538117
C        2.0647657690    1.4967098596   -1.4344799092
C        2.5388811878    0.5678372376    0.8625162340
C        3.1441158719    1.2020471406   -0.3892793338
O        3.7944617629    2.4160235554    0.0304390336
H        8.0984420500    4.3678355783   -2.2925436850
H        7.2284925196    5.3040220139   -0.1460231810
H        6.8963576924    2.4690549332   -3.3659670955
H        5.1897786211    4.3307632528    0.9035037973
H        4.8751447727    1.5209260416   -2.3449336738
H        0.1736491203   -1.3686529786   -0.8204693590
H       -0.0826465305    0.2289698713   -0.1253609094
H        1.9610739751   -0.4891202167   -2.2926046462
H        0.5003480932    0.4618230075   -2.5222219497
H        1.3055356565   -1.1257025579    1.4177277741
H        2.4555629412   -1.4683160422    0.1330935719
H        2.5137282725    1.9448444022   -2.3271864055
H        1.3834257324    2.2456688106   -1.0119687361
H        1.8706809019    1.3001856506    1.3325857666
H        3.3378084125    0.3538489598    1.5803454960
H        3.8929760255    0.5135852442   -0.8008267268
29   
Generated by ForceBalance from scan.xyz: Frame 7 of 24
C        7.0715918195    4.0402206424   -1.9446315408
C        6.5833167778    4.5699994648   -0.7423190761
C        6.5013858640    2.8702355318   -2.4488706090
C        5.5444030580    3.9394054546   -0.0612224239
C        5.4562285224    2.2256328570   -1.7748614837
C        4.9734151483    2.7610833562   -0.5709808770
C        0.6513518247   -0.3295597355   -0.6028493659
C        1.3579766315    0.3131010026   -1.8048325079
C        1.6573393313   -0.7212786705    0.4890808565
C        2.2228504179    1.5072110544   -1.3728003557
C        2.5267450530    0.4729211721    0.9096483043
C        3.2303574246    1.0874888346   -0.2981948591
O        3.9793440250    2.2128036698    0.1943414968
H        7.8803178412    4.5331275439   -2.4767475846
H        7.0142548989    5.4804216058   -0.3330539600
H        6.8670272210    2.4456366125   -3.3806742790
H        5.1578312002    4.3379551492    0.8724385356
H        5.0364963699    1.3193115256   -2.1955204791
H        0.0790482750   -1.2078127304   -0.9235356710
H       -0.0724638209    0.3847513884   -0.1873954401
H        1.9918026696   -0.4375443350   -2.2974611363
H        0.6245081730    0.6378481855   -2.5513265471
H        1.1343270899   -1.1238416540    1.3637678705
H        2.3029062089   -1.5274804015    0.1140671134
H        2.7374950480    1.9431283024   -2.2343003530
H        1.5879338572    2.2955992694   -0.9490874957
H        1.9042423126    1.2456502459    1.3777606228
H        3.2762146757    0.1714752295    1.6490356023
H        3.9265717852    0.3429358801   -0.7085286005
29   
Generated by ForceBalance from scan.xyz: Frame 8 of 24
C        2.9143303060   -3.7376883628    6.1056226091
C        1.5843497255   -3.9768945758    5.7505845463
C        3.4988903623   -2.5098221737    5.7699583777
C        0.8372025548   -3.0109313610    5.0672021722
C        2.7664900793   -1.5408986422    5.0844312758
C        1.4311917885   -1.7856948270    4.7289374645
C        0.5030335395    0.0613343713    0.6394989796
C        1.0057248020   -1.3005044797    1.1403188923
C        0.1570350105    0.9915500870    1.8111741386
C       -0.0056248128   -1.9555213314    2.0918499528
C       -0.8467863948    0.3348516113    2.7698533167
C       -0.3652431990   -1.0309850608    3.2626612568
O        0.7791578811   -0.7564984638    4.1034956539
H        3.4869497002   -4.4941154195    6.6349403755
H        1.1152583343   -4.9234805989    6.0077051152
H        4.5324790480   -2.3067961308    6.0392027939
H       -0.1967473577   -3.2159537558    4.8116186825
H        3.2068226691   -0.5847583918    4.8159018623
H       -0.3916059980   -0.0898819888    0.0185466696
H        1.2563217087    0.5293485751   -0.0050169260
H        1.2030491532   -1.9698546196    0.2951776823
H        1.9584870086   -1.1676392054    1.6668273850
H        1.0707689898    1.2356205637    2.3647516382
H       -0.2531336119    1.9377763438    1.4397207141
H       -0.9358620448   -2.1776676928    1.5519153082
H        0.3794872150   -2.9102319836    2.4604748150
H       -1.0359547525    0.9787418392    3.6352180840
H       -1.8071168750    0.1866805167    2.2593377859
H       -1.1523647547   -1.4883198483    3.8767777324
29   
Generated by ForceBalance from scan.xyz: Frame 9 of 24
C        2.9714006220   -3.7163691180    5.8963901139
C        1.6100843650   -3.9710743220    5.7006155263
C        3.4945647002   -2.4710123219    5.5293967996
C        0.7749579197   -2.9979083150    5.1437232196
C        2.6710912722   -1.4956463303    4.9630314731
C        1.3086653786   -1.7569073759    4.7661137204
C        0.6658666418    0.0078393233    0.7494525567
C        1.0804579826   -1.3573121122    1.3179260714
C        0.2263647171    0.9676712659    1.8644833819
C       -0.0348122582   -1.9667203095    2.1798275076
C       -0.8880304661    0.3549093353    2.7248787434
C       -0.4914303336   -1.0100258415    3.2881429920
O        0.5469912674   -0.7329155744    4.2644029170
H        3.6147222915   -4.4764253922    6.3310117778
H        1.1897296516   -4.9314137930    5.9890465988
H        4.5503385442   -2.2586567034    5.6785007538
H       -0.2836252192   -3.1999099770    5.0108724871
H        3.0622074534   -0.5255714366    4.6693669142
H       -0.1650662663   -0.1329247062    0.0433831952
H        1.4919444144    0.4460360859    0.1771684543
H        1.3360796101   -2.0467503243    0.5050464600
H        1.9845410647   -1.2425864116    1.9277497626
H        1.0839423591    1.1986353037    2.5064848925
H       -0.1166577735    1.9169920493    1.4370235572
H       -0.9134499331   -2.1771735950    1.5555798272
H        0.2853059330   -2.9229018092    2.6008700187
H       -1.1475240499    1.0195961134    3.5555295366
H       -1.7950483956    0.2198169772    2.1215000205
H       -1.3495917320   -1.4476927392    3.8175698694
29   
Generated by ForceBalance from scan.xyz: Frame 10 of 24
C        3.0383580651   -3.6594537821    5.7231780143
C        1.6833463383   -3.9874854661    5.6044953081
C        3.4652811245   -2.3708743272    5.3826730252
C        0.7609666174   -3.0419124518    5.1476420029
C        2.5518751025   -1.4235181823    4.9135869840
C        1.1975582327   -1.7582785264    4.7889730979
C        0.7937302304   -0.0729033818    0.8422529937
C        1.0793502299   -1.4598499722    1.4367523381
C        0.3443844175    0.9171803663    1.9263055274
C       -0.1225877150   -1.9885314350    2.2341038325
C       -0.8704877670    0.3857732398    2.6990156302
C       -0.6068066785   -0.9967339525    3.2978573376
O        0.3325538348   -0.7712720431    4.3887694870
H        3.7512746542   -4.3968150412    6.0818240219
H        1.3384036337   -4.9816233820    5.8780745835
H        4.5146199222   -2.1024451135    5.4767196370
H       -0.2941600855   -3.2911750069    5.0781050706
H        2.8673936026   -0.4201063917    4.6416658636
H        0.0041439216   -0.1604419578    0.0822408422
H        1.6835009796    0.3072108392    0.3267197590
H        1.3309898375   -2.1706196585    0.6410692435
H        1.9550331497   -1.4046564513    2.0935299998
H        1.1666599316    1.0863600048    2.6312796301
H        0.1034035512    1.8888663394    1.4798994198
H       -0.9701708864   -2.1514161955    1.5549731946
H        0.1086615068   -2.9590502129    2.6788230350
H       -1.1499288789    1.0721180314    3.5051701481
H       -1.7352626554    0.3048568747    2.0273143252
H       -1.5344938118   -1.3815966321    3.7441988751
29   
Generated by ForceBalance from scan.xyz: Frame 11 of 24
C        3.1066575911   -3.5554528588    5.5756134836
C        1.7795965700   -3.9859248649    5.4704281140
C        3.4192562248   -2.2187532544    5.3028761182
C        0.7723967718   -3.0940528172    5.0905435823
C        2.4201232325   -1.3247354416    4.9102925132
C        1.0943050101   -1.7621935049    4.7928406197
C        0.8861091673   -0.1651710169    0.9141224694
C        1.0202440854   -1.5761020415    1.5054341045
C        0.4762671107    0.8523790390    1.9882881194
C       -0.2539053583   -1.9984718291    2.2535504628
C       -0.8215526954    0.4292809662    2.6884369957
C       -0.7164562805   -0.9723272879    3.2939627008
O        0.1353044046   -0.8340564018    4.4728439911
H        3.8860352448   -4.2508555572    5.8750460136
H        1.5229391209   -5.0179516583    5.6966675273
H        4.4455108031   -1.8707979347    5.3910473200
H       -0.2628003686   -3.4194962277    5.0386956189
H        2.6472130173   -0.2850670678    4.6918621438
H        0.1274219533   -0.1747133588    0.1185334995
H        1.8291725014    0.1369930137    0.4438023081
H        1.2322025142   -2.3022542576    0.7119629010
H        1.8743950894   -1.6060456173    2.1902427534
H        1.2733251394    0.9380030156    2.7364617400
H        0.3512895000    1.8468112673    1.5444673907
H       -1.0805135515   -2.0906146261    1.5362336929
H       -0.1259869682   -2.9856764363    2.7032446329
H       -1.0854253724    1.1355076097    3.4824112984
H       -1.6500776735    0.4275643055    1.9673563485
H       -1.7023268271   -1.2781106986    3.6683993605
29   
Generated by ForceBalance from scan.xyz: Frame 12 of 24
C        3.1518750143   -3.4339532587    5.4672474798
C        1.8602809492   -3.9596791992    5.3545387902
C        3.3565563440   -2.0642882185    5.2651059563
C        0.7823375628   -3.1295564082    5.0330809134
C        2.2856676067   -1.2314725093    4.9314620486
C        0.9961992668   -1.7638033089    4.7993001511
C        0.9584961093   -0.2573133111    0.9654237400
C        0.9569587707   -1.6776917645    1.5483641654
C        0.6058247588    0.7835272321    2.0372132107
C       -0.3683670366   -1.9965444025    2.2583479339
C       -0.7455101351    0.4709406108    2.6920705420
C       -0.7988023125   -0.9409619723    3.2834810062
O       -0.0442008848   -0.9061521483    4.5367040607
H        3.9866715072   -4.0815091751    5.7213025370
H        1.6868812671   -5.0185681124    5.5301059444
H        4.3536821838   -1.6423937324    5.3641661868
H       -0.2264248686   -3.5285239727    4.9783847976
H        2.4303309986   -0.1669628261    4.7717138683
H        0.2240425402   -0.1963975770    0.1496360894
H        1.9366352371   -0.0332978383    0.5240517726
H        1.1260643244   -2.4142705772    0.7541554850
H        1.7884904796   -1.7835601481    2.2523646830
H        1.3862370276    0.7961093784    2.8072188116
H        0.5810269266    1.7883249478    1.5997689960
H       -1.1744505760   -2.0299564901    1.5130169887
H       -0.3312087622   -2.9899134719    2.7118327999
H       -0.9701358284    1.1888943775    3.4875096330
H       -1.5459726717    0.5566800326    1.9442415797
H       -1.8300147713   -1.1591546301    3.5862999991
29   
Generated by ForceBalance from scan.xyz: Frame 13 of 24
C        3.1908713534   -3.3079949243    5.3755042644
C        1.9463040947   -3.9261253239    5.2138257099
C        3.2837161513   -1.9148052518    5.2807791101
C        0.8060608323   -3.1637435813    4.9438250680
C        2.1497982686   -1.1486640295    5.0000992583
C        0.9095245510   -1.7722294313    4.8077447524
C        1.0046664798   -0.3643238386    1.0140529367
C        0.8658561611   -1.7825865101    1.5853832716
C        0.7303531300    0.6956572431    2.0899066984
C       -0.4995930846   -1.9851152270    2.2618888424
C       -0.6539879728    0.5012919439    2.7224502601
C       -0.8668252959   -0.9075589971    3.2896169987
O       -0.2020186009   -0.9925724728    4.5906083107
H        4.0747936014   -3.9032262370    5.5880324423
H        1.8583543640   -5.0054941914    5.3105907727
H        4.2420311074   -1.4219656986    5.4251378549
H       -0.1668872596   -3.6369160067    4.8525966413
H        2.2081603109   -0.0666052071    4.9309288181
H        0.2918145191   -0.2317470716    0.1876163398
H        2.0059801417   -0.2259492126    0.5900118176
H        0.9836896230   -2.5255696768    0.7877831223
H        1.6712750647   -1.9666760756    2.3028215036
H        1.5012791072    0.6337335856    2.8657604301
H        0.8000620554    1.7018019894    1.6602070262
H       -1.2827856546   -1.9360967730    1.4932269013
H       -0.5697627645   -2.9826364097    2.7031115766
H       -0.8260725126    1.2272310762    3.5237223846
H       -1.4268634064    0.6748883741    1.9604498796
H       -1.9261898493   -1.0242078645    3.5425629326
29   
Generated by ForceBalance from scan.xyz: Frame 14 of 24
C        3.2401853315   -3.1723006803    5.3302252661
C        2.0508827681   -3.8761677606    5.1117985745
C        3.2234656297   -1.7730099092    5.3231304895
C        0.8572093560   -3.1906881258    4.8687622049
C        2.0347977823   -1.0827348460    5.0728649377
C        0.8522530155   -1.7899507647    4.8183387542
C        1.0224586594   -0.4505945912    1.0254420429
C        0.7804443210   -1.8598908400    1.5827850390
C        0.8559954081    0.6088465130    2.1230994421
C       -0.5984734743   -1.9644823512    2.2543362483
C       -0.5288951709    0.5196488612    2.7805617371
C       -0.8930024650   -0.8796243889    3.2994204736
O       -0.3227697490   -1.0986618778    4.6274101791
H        4.1662497436   -3.7080141381    5.5205423295
H        2.0485376673   -4.9630240382    5.1407168116
H        4.1372891617   -1.2163321203    5.5158791742
H       -0.0736743768   -3.7310086886    4.7271919266
H        2.0059755643    0.0026728730    5.0798399562
H        0.3072719592   -0.2494888206    0.2149177983
H        2.0238877824   -0.3861122941    0.5844427695
H        0.8423084567   -2.6020298636    0.7780214524
H        1.5709492599   -2.1089732315    2.2970250257
H        1.6385395141    0.4704790361    2.8759406473
H        0.9967203897    1.6136018310    1.7073510452
H       -1.3690054899   -1.8476195958    1.4800491134
H       -0.7508808901   -2.9579182663    2.6856790310
H       -0.6188372477    1.2291934921    3.6097418099
H       -1.2899517272    0.8003114830    2.0386798036
H       -1.9665257523   -0.8940709845    3.5112794066
29   
Generated by ForceBalance from scan.xyz: Frame 15 of 24
C        3.2856845309   -3.0279375646    5.3227780365
C        2.1674876238   -3.8116812883    5.0174735892
C        3.1513996494   -1.6370623112    5.3982647387
C        0.9289432037   -3.2125460094    4.7711965343
C        1.9164746147   -1.0325213516    5.1487580478
C        0.8068353305   -1.8171912674    4.8091143365
C        1.0223747901   -0.5434120359    1.0029324038
C        0.6685316512   -1.9403237066    1.5290964234
C        0.9869122051    0.4875819468    2.1382062390
C       -0.7072146699   -1.9435715040    2.2150416122
C       -0.3837135348    0.5080062951    2.8331071876
C       -0.9044491138   -0.8651521229    3.2916489219
O       -0.4216132709   -1.2219245475    4.6209325129
H        4.2469724352   -3.4966845250    5.5152961270
H        2.2564184910   -4.8945429833    4.9782938427
H        4.0085547701   -1.0204321602    5.6573934444
H        0.0527108235   -3.8156050352    4.5541977210
H        1.7959041594    0.0442116377    5.2222022696
H        0.3052993513   -0.2527002371    0.2216958942
H        2.0125237487   -0.5559133716    0.5330010182
H        0.6584932059   -2.6653400866    0.7064793202
H        1.4436823501   -2.2712335949    2.2269497563
H        1.7749895498    0.2488792722    2.8588396152
H        1.2089324478    1.4892790027    1.7511445537
H       -1.4717790029   -1.7518035749    1.4497507826
H       -0.9375111509   -2.9278403853    2.6345608503
H       -0.3802389533    1.1817229973    3.6966876125
H       -1.1234776861    0.9092666195    2.1260783382
H       -1.9772913345   -0.7686523683    3.4808014784
29   
Generated by ForceBalance from scan.xyz: Frame 16 of 24
C        3.3305448549   -2.8752140237    5.3589804903
C        2.3052512198   -3.7218402420    4.9229927983
C        3.0683335503   -1.5126817497    5.5404630813
C        1.0324204217   -3.2103738172    4.6550697212
C        1.7976348540   -0.9956562094    5.2732261298
C        0.7821971351   -1.8406907320    4.8080102140
C        0.9996309955   -0.6362966120    0.9857293516
C        0.5064111017   -2.0097595979    1.4582198583
C        1.1088684215    0.3338226743    2.1688309344
C       -0.8467655929   -1.8969169895    2.1794091403
C       -0.2355852770    0.4741947689    2.9012479605
C       -0.9100957235   -0.8489570207    3.3035541503
O       -0.4882309824   -1.3445312177    4.6059066643
H        4.3191156225   -3.2750909366    5.5680308587
H        2.4939128058   -4.7850144994    4.7962393966
H        3.8531531861   -0.8499848623    5.8966993861
H        0.2265122251   -3.8613582184    4.3296984692
H        1.5793337096    0.0573864304    5.4245323176
H        0.3000810734   -0.2306348103    0.2406018803
H        1.9703313658   -0.7344348415    0.4863143139
H        0.4012824546   -2.6906908928    0.6049829811
H        1.2564445306   -2.4520026807    2.1208268651
H        1.8814670161   -0.0266873116    2.8545867360
H        1.4329151645    1.3226402447    1.8225671183
H       -1.6037136666   -1.6020278198    1.4395766669
H       -1.1678099761   -2.8656870862    2.5766756441
H       -0.1399776778    1.1042715667    3.7920810432
H       -0.9369981085    0.9904860496    2.2310836659
H       -1.9637073239   -0.6371218530    3.5055281152
29   
Generated by ForceBalance from scan.xyz: Frame 17 of 24
C        3.3791490956   -2.7113098936    5.4138291043
C        2.4657554300   -3.5963165153    4.8301738930
C        2.9769372157   -1.4050185089    5.7134289653
C        1.1670657204   -3.1755689092    4.5308656879
C        1.6786601637   -0.9798168835    5.4179625058
C        0.7771455163   -1.8580210036    4.8027960478
C        0.9638018760   -0.7388991322    0.9485502964
C        0.3186182549   -2.0649655757    1.3706750592
C        1.2160913977    0.1524030289    2.1713865894
C       -0.9936571692   -1.8285228149    2.1358362563
C       -0.0859594378    0.4179217903    2.9445005230
C       -0.9029248565   -0.8334735662    3.3061555262
O       -0.5216561354   -1.4615596531    4.5640446889
H        4.3885600335   -3.0402015749    5.6457748395
H        2.7622284741   -4.6193177928    4.6119495534
H        3.6731005849   -0.7156005695    6.1846833251
H        0.4452458553   -3.8584630963    4.0926330947
H        1.3532185947    0.0269690401    5.6615006146
H        0.3014940342   -0.2163254885    0.2432781982
H        1.9039364748   -0.9273495184    0.4175260030
H        0.1138578927   -2.6868832527    0.4909402522
H        1.0267213865   -2.6227263253    1.9909188488
H        1.9541007028   -0.3280250693    2.8210216263
H        1.6489525003    1.1109840182    1.8610006511
H       -1.7315021491   -1.4191424335    1.4317426776
H       -1.4115756099   -2.7694290490    2.5097726480
H        0.1035699033    0.9982617235    3.8533958508
H       -0.7371367082    1.0393545719    2.3144878032
H       -1.9199174932   -0.5110454539    3.5460068007
29   
Generated by ForceBalance from scan.xyz: Frame 18 of 24
C       -0.4488447987    1.4513166862    6.8756745659
C        0.7679660628    0.8833853556    6.4817664891
C       -1.6484523434    0.9033331483    6.4083367456
C        0.7881566471   -0.2072756093    5.6085247845
C       -1.6341040212   -0.1912625069    5.5392770263
C       -0.4130460646   -0.7314847168    5.1136333952
C        0.4616573222    0.7862390737    1.4929232331
C        1.4715850384   -0.1694203664    2.1415121717
C       -0.8754734822    0.7576470848    2.2449142148
C        0.9229605191   -1.6030459246    2.2066102774
C       -1.4434091096   -0.6692102043    2.3146438099
C       -0.4698954015   -1.7321720025    2.8448387506
O       -0.3878190063   -1.8413732592    4.2980580557
H       -0.4625877847    2.3012776350    7.5525763050
H        1.7046280380    1.2869252423    6.8584960041
H       -2.5994931690    1.3225366689    6.7275057044
H        1.7250836448   -0.6677585713    5.3095882945
H       -2.5611606402   -0.6365275872    5.1918509100
H        0.3002440758    0.4913454801    0.4460294447
H        0.8627648520    1.8061442054    1.4744351328
H        2.4131402340   -0.1681462034    1.5795091741
H        1.7075701351    0.1916870074    3.1473248224
H       -0.7336427165    1.1609595735    3.2521347038
H       -1.6049810667    1.4082510713    1.7480323897
H        0.8437899671   -1.9919766366    1.1815560155
H        1.6104726751   -2.2665630946    2.7418420677
H       -2.3737135841   -0.6960935495    2.8899197361
H       -1.7062487166   -0.9839623767    1.2954457275
H       -0.8681672147   -2.7163786367    2.5814386922
29   
Generated by ForceBalance from scan.xyz: Frame 19 of 24
C       -0.6113215638    1.4520198671    6.9217558547
C        0.6535322138    1.0317879758    6.4952243757
C       -1.7490947919    0.7748052416    6.4698251180
C        0.7793009600   -0.0365903353    5.6038285133
C       -1.6286985893   -0.3011077350    5.5855728011
C       -0.3634006311   -0.6916273380    5.1253509721
C        0.5439518547    0.7501621143    1.4739090197
C        1.5072812974   -0.3064767543    2.0311546050
C       -0.7499110356    0.8041962666    2.2977574966
C        0.8448744571   -1.6897510733    2.0884453073
C       -1.4132660552   -0.5793963312    2.3909908427
C       -0.4842766067   -1.7087894065    2.8560952027
O       -0.2169339468   -1.7767744850    4.2925643358
H       -0.7081453599    2.2866207762    7.6108632148
H        1.5458570306    1.5360514020    6.8579685575
H       -2.7348328855    1.0764541342    6.8154415389
H        1.7558627593   -0.3786147239    5.2747660560
H       -2.5064758276   -0.8497629043    5.2583395235
H        0.3029947114    0.5049821491    0.4295862484
H        1.0247828206    1.7351386428    1.4625713231
H        2.4123332655   -0.3603293830    1.4147264144
H        1.8304518662   -0.0071763810    3.0337293539
H       -0.5280437939    1.1849817856    3.2992420404
H       -1.4577374659    1.5094050858    1.8463058398
H        0.6387894379   -2.0294996833    1.0635107187
H        1.5151102012   -2.4288427201    2.5394909637
H       -2.3111543056   -0.5393004365    3.0135479137
H       -1.7519476116   -0.8713833620    1.3875858045
H       -0.9819621512   -2.6640457990    2.6605103357
29   
Generated by ForceBalance from scan.xyz: Frame 20 of 24
C       -0.7426331162    1.4356237411    7.0166910075
C        0.5509071455    1.1657112390    6.5555761447
C       -1.8112085192    0.6559923101    6.5611466746
C        0.7718836289    0.1439633754    5.6289618278
C       -1.5949465108   -0.3761915113    5.6435021777
C       -0.3035163900   -0.6192147891    5.1544568131
C        0.6245792891    0.6931735720    1.4179951831
C        1.5295876584   -0.4363017109    1.9283189507
C       -0.6215515871    0.8444862264    2.3015849545
C        0.7641709588   -1.7619067597    2.0215500266
C       -1.3702810446   -0.4887600800    2.4572905453
C       -0.4892234115   -1.6645999361    2.8994642371
O       -0.0431708735   -1.6570028912    4.2929158046
H       -0.9138023279    2.2347968268    7.7327605126
H        1.3912275530    1.7539742589    6.9159834015
H       -2.8166339711    0.8416486206    6.9310370954
H        1.7708105543   -0.0766596971    5.2645222212
H       -2.4168206865   -1.0060380907    5.3163896583
H        0.3170461600    0.4700357287    0.3864015105
H        1.1778161840    1.6388866436    1.3830613147
H        2.3975390800   -0.5577002383    1.2698594322
H        1.9215273131   -0.1727451379    2.9172633066
H       -0.3269389864    1.2236440129    3.2849046563
H       -1.3028465272    1.5887683640    1.8727870210
H        0.4483403342   -2.0731658295    1.0159520418
H        1.4054236256   -2.5568119271    2.4162647278
H       -2.2300677254   -0.3708564122    3.1214582485
H       -1.7783359275   -0.7817711741    1.4804027994
H       -1.0685223530   -2.5898221153    2.8035169486
29   
Generated by ForceBalance from scan.xyz: Frame 21 of 24
C       -0.8826522338    1.3743685400    7.1295865336
C        0.4236371189    1.2613483451    6.6398187842
C       -1.8732719165    0.5120915257    6.6475797893
C        0.7340958454    0.3115148157    5.6637560411
C       -1.5674850344   -0.4498117744    5.6802965636
C       -0.2640098291   -0.5399105511    5.1714264241
C        0.6841941580    0.6292225580    1.2979697748
C        1.5344953412   -0.5500036604    1.7881262206
C       -0.4910667837    0.8934705750    2.2488410256
C        0.6824237381   -1.8116226902    1.9716710726
C       -1.3214235768   -0.3765918813    2.4900151791
C       -0.4918772818   -1.5899055812    2.9316905925
O        0.1007627146   -1.5029572863    4.2645037517
H       -1.1232675870    2.1181044081    7.8843289659
H        1.2041963877    1.9184839104    7.0152329132
H       -2.8871949985    0.5780539309    7.0345611773
H        1.7425353572    0.2144979863    5.2717190231
H       -2.3282177503   -1.1417421826    5.3303324192
H        0.2974989860    0.4023383797    0.2942084047
H        1.3007276019    1.5304347332    1.2003890703
H        2.3483998202   -0.7541523576    1.0828797505
H        2.0033400829   -0.2932053656    2.7453737474
H       -0.1114323940    1.2719078340    3.2035090103
H       -1.1420463642    1.6757231837    1.8412210415
H        0.2749151457   -2.1292135003    1.0021609113
H        1.2920628418   -2.6389042611    2.3501821465
H       -2.1297415343   -0.1735528260    3.1965352724
H       -1.8048775990   -0.6747727542    1.5498418340
H       -1.1360871750   -2.4778104577    2.9406263494
29   
Generated by ForceBalance from scan.xyz: Frame 22 of 24
C       -0.9886813391    1.2883990902    7.2694680176
C        0.3228565605    1.3212656122    6.7817653708
C       -1.8992235292    0.3727675773    6.7311219148
C        0.7172987620    0.4602909819    5.7549782500
C       -1.5091741794   -0.5007591103    5.7119508787
C       -0.2001503045   -0.4482436324    5.2114610772
C        0.7318409958    0.5518871601    1.1742904946
C        1.5390817288   -0.6614990159    1.6548822196
C       -0.3550652096    0.9278484476    2.1905928781
C        0.6259389089   -1.8528830389    1.9717806228
C       -1.2499443268   -0.2738633959    2.5269523264
C       -0.4569293215   -1.5015168559    2.9978298698
O        0.2592788068   -1.3149766028    4.2526090593
H       -1.2954809284    1.9634186261    8.0636659293
H        1.0411171811    2.0236096999    7.1975092538
H       -2.9165625334    0.3288161148    7.1122610511
H        1.7300837483    0.4756104285    5.3620982160
H       -2.2099849556   -1.2290081055    5.3137758996
H        0.2610615194    0.3154923111    0.2094072824
H        1.3968436027    1.4055418914    0.9981727689
H        2.2754360964   -0.9550475316    0.8978182614
H        2.1006181775   -0.3945900007    2.5575708568
H        0.1135660674    1.3019617168    3.1075057613
H       -0.9753751411    1.7442496526    1.8029190144
H        0.1260792619   -2.1951464356    1.0559182247
H        1.2123948053   -2.6965312395    2.3514850703
H       -2.0112564068    0.0103496014    3.2571792318
H       -1.7909832737   -0.5889490556    1.6244654326
H       -1.1400235057   -2.3511465928    3.1289618513
29   
Generated by ForceBalance from scan.xyz: Frame 23 of 24
C       -1.0775088315    1.1665751680    7.4210603579
C        0.2273482878    1.3325254192    6.9423632401
C       -1.9188141274    0.2336681746    6.8059859714
C        0.6827192941    0.5843164708    5.8546994490
C       -1.4690229539   -0.5276173990    5.7231013154
C       -0.1649182449   -0.3464269243    5.2395112418
C        0.7462405581    0.4605746525    1.0070586191
C        1.5225195047   -0.7556061867    1.5294545175
C       -0.2569480943    0.9666325391    2.0526674016
C        0.5745026770   -1.8699415728    1.9933739602
C       -1.1960055215   -0.1549043057    2.5184133040
C       -0.4314309542   -1.3805813214    3.0392932902
O        0.3664083620   -1.0905773550    4.2174661713
H       -1.4326613289    1.7539129643    8.2632831726
H        0.8928005945    2.0520037978    7.4130315099
H       -2.9316690550    0.0894010939    7.1740290036
H        1.6911833015    0.7036302154    5.4686269172
H       -2.1241050742   -1.2610860162    5.2625834331
H        0.2039083925    0.1798733637    0.0928143543
H        1.4396140691    1.2621054863    0.7264744213
H        2.1922350360   -1.1438428989    0.7533272066
H        2.1534726515   -0.4526166030    2.3725527444
H        0.2833655150    1.3676816848    2.9182860046
H       -0.8504209941    1.7925795097    1.6439411729
H        0.0080985936   -2.2605198297    1.1379081841
H        1.1423595417   -2.7077419971    2.4123847280
H       -1.8887568844    0.2206982527    3.2759436206
H       -1.8119913360   -0.4972713735    1.6761077790
H       -1.1367677918   -2.1859914089    3.2844865800
29   
Generated by ForceBalance from scan.xyz: Frame 24 of 24
C       -1.0996505656    1.0180784073    7.6008709560
C        0.2174771629    1.2334774392    7.1755403384
C       -1.9268017526    0.1763592368    6.8528887493
C        0.6968622056    0.6225543563    6.0170031361
C       -1.4559534303   -0.4467006634    5.6917256914
C       -0.1376226761   -0.2212034474    5.2680912819
C        0.7090118079    0.3564173098    0.8231326486
C        1.5048146129   -0.8041562449    1.4365274590
C       -0.2512173614    0.9736428325    1.8496611289
C        0.5744622055   -1.8577665700    2.0542322944
C       -1.1807353783   -0.0867965799    2.4563056623
C       -0.3940889812   -1.2522293924    3.0733561015
O        0.4351561486   -0.8160973727    4.1755490769
H       -1.4734133132    1.4987245212    8.5006113841
H        0.8744097411    1.8848088430    7.7466924095
H       -2.9502439932   -0.0043824957    7.1724209246
H        1.7152962146    0.7814567160    5.6737777856
H       -2.1126969283   -1.1049385202    5.1331885121
H        0.1308091412   -0.0126982742   -0.0360662648
H        1.3925843999    1.1209920729    0.4357913991
H        2.1400030595   -1.2753139770    0.6775006934
H        2.1718629916   -0.4178371696    2.2153406078
H        0.3257305578    1.4464383939    2.6534689002
H       -0.8511650064    1.7645087442    1.3850771034
H       -0.0234071550   -2.3348719817    1.2669796510
H        1.1555568615   -2.6478949889    2.5417240907
H       -1.8417020316    0.3677022951    3.1995597941
H       -1.8279355131   -0.5065636369    1.6745278999
H       -1.0806845074   -2.0308590120    3.4304798414
