30   

C       -1.4854496613    0.9634569663    0.9076648284
C       -1.2341565827   -0.2557729956    1.5397196427
C       -0.5037058338    1.5386456272    0.0991573907
C        5.5528355538    1.2263096703   -1.2597803891
C       -0.0016993567   -0.8969106170    1.3688503563
C        0.7285132576    0.8985445799   -0.0723264405
C        5.1995652208    0.0113285787   -1.8384494904
C        4.8896724626    1.6546003335   -0.1147635135
C        1.0067420072   -0.3261700446    0.5726806518
C        3.4642495892   -0.3164043582   -0.1651246874
C        4.1827639292   -0.7788849074   -1.2957703751
C        3.8575028565    0.8967286530    0.4419744284
C        2.2913810884   -1.0575555883    0.3842140039
C        3.8259361985   -3.1611582905   -1.1471088823
C        3.5598032464   -3.1145706656    0.3600482096
N        2.3393170331   -2.3409428782    0.6754393353
N        3.9382352999   -2.0142882381   -1.8967851761
O        3.9824476645   -4.2220750043   -1.7310550882
F        3.2554270424    1.3460254873    1.5678910688
H       -2.4412433883    1.4580466896    1.0395461093
H       -1.9960911331   -0.7101709189    2.1628123137
H       -0.6985470671    2.4799548022   -0.4020481276
H        6.3487013382    1.8259583685   -1.6892911695
H        0.1592921150   -1.8455300248    1.8701540758
H        1.4601590144    1.3604467144   -0.7250842304
H        5.7387434591   -0.3302955015   -2.7145527903
H        5.1701040642    2.5883986020    0.3580414712
H        3.4378079948   -4.1412080623    0.7163532161
H        4.4288072987   -2.6890524159    0.8697740607
H        4.2578052989   -2.1997575052   -2.8387606727
30   

C       -1.4479567807    1.0163145147    0.9392903527
C       -1.1304370313   -0.1085337143    1.7044523798
C       -0.5603879075    1.4587880254   -0.0441768346
C        5.5529695535    1.2402756778   -1.1688076434
C        0.0729570879   -0.7897681393    1.4875012855
C        0.6425578530    0.7778031761   -0.2605655751
C        5.2415841825    0.0296101106   -1.7791363952
C        4.8295066518    1.6471573869   -0.0532962221
C        0.9777853201   -0.3570938044    0.5053286860
C        3.4370081711   -0.3438618499   -0.1901524682
C        4.2097048529   -0.7797011553   -1.2961180419
C        3.7816769776    0.8705276890    0.4450478550
C        2.2481215831   -1.1034158293    0.2910800637
C        3.8355682897   -3.1682461856   -1.2352284206
C        3.4986720370   -3.1685024203    0.2576070606
N        2.2729851625   -2.3937339392    0.5478945633
N        3.9980392949   -1.9997423614   -1.9402436813
O        4.0098047508   -4.2111105564   -1.8459850985
F        3.1218681738    1.3034411023    1.5447166204
H       -2.3811001810    1.5423250007    1.1068891604
H       -1.8174070645   -0.4568560506    2.4673166560
H       -0.8048848305    2.3290109482   -0.6426240557
H        6.3606992319    1.8548960321   -1.5525383403
H        0.2991933459   -1.6620181973    2.0918489308
H        1.3134054551    1.1322466179   -1.0353746205
H        5.8234833565   -0.2919053009   -2.6352815665
H        5.0738281170    2.5793752243    0.4421043006
H        3.3520321878   -4.2052823217    0.5729374478
H        4.3474181765   -2.7696570650    0.8202496493
H        4.3615299494   -2.1589747168   -2.8710545366
30   

C       -1.4080197333    1.0523477449    0.9474830191
C       -0.9993840277    0.0430000056    1.8235619767
C       -0.6373295213    1.3465879036   -0.1803386701
C        5.5647431158    1.2492398952   -1.0697715498
C        0.1766908086   -0.6726767159    1.5705439685
C        0.5382037806    0.6303892580   -0.4314264777
C        5.2886594986    0.0489618611   -1.7159582669
C        4.7894244271    1.6307209447    0.0191627420
C        0.9550072189   -0.3946449240    0.4381513116
C        3.4220056168   -0.3697718904   -0.2112912901
C        4.2425909672   -0.7763595650   -1.2943039683
C        3.7269024952    0.8380620229    0.4574802518
C        2.2192823203   -1.1462883211    0.2003763477
C        3.8577867647   -3.1673721415   -1.3252336102
C        3.4581686233   -3.2159917459    0.1506812810
N        2.2274609583   -2.4423651528    0.4212996532
N        4.0611382453   -1.9776570088   -1.9819781576
O        4.0499598288   -4.1901885155   -1.9638171972
F        3.0181547218    1.2502441353    1.5343562070
H       -2.3195858993    1.6058048330    1.1430523287
H       -1.5931741976   -0.1870675844    2.7008615247
H       -0.9498530064    2.1302198500   -0.8611100420
H        6.3834913689    1.8767095720   -1.4064251219
H        0.4846194292   -1.4526878170    2.2589334444
H        1.1292070026    0.8694829667   -1.3088875668
H        5.9080326331   -0.2505284224   -2.5535840046
H        5.0035651441    2.5560938992    0.5406421714
H        3.2922279171   -4.2619417629    0.4233144280
H        4.2859738408   -2.8440972775    0.7609331402
H        4.4643678218   -2.1090523435   -2.9007118310
30   

C       -1.3746516265    1.0758043833    0.9324057863
C       -0.8515928589    0.2233016068    1.9089081554
C       -0.7361990436    1.1874667231   -0.3057867884
C        5.5859743177    1.2530611148   -0.9538268627
C        0.3055413916   -0.5188820414    1.6451010390
C        0.4204530901    0.4442041054   -0.5661712051
C        5.3296189383    0.0716232675   -1.6408521414
C        4.7787830313    1.6039732112    0.1217445354
C        0.9461565219   -0.4278208822    0.4029578978
C        3.4219240389   -0.3918800853   -0.2007514707
C        4.2726854790   -0.7654884219   -1.2729909745
C        3.7050633343    0.7992552853    0.5078701339
C        2.2093964419   -1.1829946519    0.1494472314
C        3.8785601435   -3.1541958940   -1.4019698381
C        3.4354037235   -3.2565768066    0.0583516883
N        2.2028350301   -2.4848505014    0.3249488632
N        4.1090553297   -1.9421829474   -2.0066541593
O        4.0822828819   -4.1531107082   -2.0738963722
F        2.9680321062    1.1848786220    1.5751665250
H       -2.2711416025    1.6505601216    1.1360415850
H       -1.3408634380    0.1370210684    2.8723941650
H       -1.1355495946    1.8513910044   -1.0640359914
H        6.4129767622    1.8902804620   -1.2494475763
H        0.7086349465   -1.1750341097    2.4091236088
H        0.9148665294    0.5426021582   -1.5265201822
H        5.9721420964   -0.2029845362   -2.4695049645
H        4.9760173119    2.5153389097    0.6736341381
H        3.2548048961   -4.3110159722    0.2851797627
H        4.2477477167   -2.9151177342    0.7059850978
H        4.5385340577   -2.0421879685   -2.9174258441
30   

C       -1.3916777109    1.0869785475    0.8892939304
C       -0.7309605660    0.4670977559    1.9534269377
C       -0.8886676825    0.9585191933   -0.4079759199
C        5.6274699039    1.2245430683   -0.8277636446
C        0.4282221942   -0.2815938622    1.7183203077
C        0.2705475373    0.2090762539   -0.6375329830
C        5.3444617844    0.0817798346   -1.5668219028
C        4.8311092473    1.5415940552    0.2657063343
C        0.9367403781   -0.4283160278    0.4227237435
C        3.4308166150   -0.4093865093   -0.1413538925
C        4.2715069383   -0.7493705022   -1.2335838801
C        3.7417598810    0.7426649426    0.6189770290
C        2.2006859716   -1.1926485338    0.1667090963
C        3.8312838010   -3.1212431236   -1.4766310232
C        3.3800950617   -3.2848888355   -0.0245683358
N        2.1621536281   -2.5007879477    0.2705526544
N        4.0823492840   -1.8858076163   -2.0227716834
O        4.0180396918   -4.0901703173   -2.1957428095
F        3.0205465224    1.0968929339    1.7064062024
H       -2.2901849597    1.6662963211    1.0698186919
H       -1.1153221621    0.5659182976    2.9622006374
H       -1.3955293383    1.4397109637   -1.2367089929
H        6.4661275206    1.8579846283   -1.0975003204
H        0.9371390972   -0.7580791172    2.5491850507
H        0.6582331587    0.1178482567   -1.6463834408
H        5.9781050454   -0.1669353707   -2.4103403369
H        5.0489250379    2.4225997843    0.8576811000
H        3.1761410827   -4.3449151961    0.1505227708
H        4.1958545012   -2.9913652546    0.6419639765
H        4.5098129647   -1.9500421783   -2.9377095688
30   

C       -1.2749172796    0.7195762329    0.6763969285
C       -0.4807091105    0.4407226335    1.7910274865
C       -0.8366928706    0.3437831774   -0.5949560692
C        5.8629401370    1.3333159850   -0.7000652618
C        0.7486887373   -0.2099599020    1.6321441983
C        0.3933071743   -0.3055743356   -0.7464269178
C        5.5994202846    0.2441961742   -1.5210353952
C        5.0835581248    1.5337791402    0.4315784329
C        1.2052906993   -0.5911517019    0.3652192855
C        3.7296417080   -0.4215961943   -0.1028574088
C        4.5609081553   -0.6454843412   -1.2335428303
C        4.0275495699    0.6743619626    0.7422025616
C        2.5272318271   -1.2719643713    0.1447278193
C        4.2256310998   -3.0085348075   -1.6420399001
C        3.7892461122   -3.2941870637   -0.2044859236
N        2.5376968692   -2.5846372578    0.1340294785
N        4.3994504552   -1.7260516312   -2.1034190000
O        4.4562693320   -3.9142213079   -2.4277866707
F        3.3335549519    0.9184130360    1.8739183985
H       -2.2284632383    1.2210980837    0.7978634794
H       -0.8185074317    0.7235451459    2.7815121575
H       -1.4493084648    0.5528377259   -1.4646073695
H        6.6746662072    2.0138584255   -0.9352457349
H        1.3423306963   -0.4372392798    2.5104426855
H        0.7251298164   -0.5954739728   -1.7376562552
H        6.2221664960    0.0834204201   -2.3935178884
H        5.2893009654    2.3702918406    1.0888252005
H        3.6313795907   -4.3715891452   -0.1036276502
H        4.5920046557   -3.0105021227    0.4818088326
H        4.8163815739   -1.7047163249   -3.0251828479
30   

C       -1.3051610483    0.6953303717    0.5625807640
C       -0.4303057016    0.7247490000    1.6494538614
C       -0.9341118427    0.0198661187   -0.5996824084
C        5.9230809032    1.3024173124   -0.5798965571
C        0.8148485308    0.0883425282    1.5708807315
C        0.3112416974   -0.6123688543   -0.6717404443
C        5.5590143951    0.3103055288   -1.4807244089
C        5.2456550674    1.4014520994    0.6281009890
C        1.2153879045   -0.5823349093    0.4074991836
C        3.7654880521   -0.4308156642    0.0001048458
C        4.5119772066   -0.5713175553   -1.2010168575
C        4.1846277904    0.5459019448    0.9340780689
C        2.5418808964   -1.2651962186    0.2249849833
C        4.1328263156   -2.8918804160   -1.7479462963
C        3.7603264306   -3.2714687022   -0.3124292145
N        2.5287145920   -2.5739395400    0.1134395139
N        4.2694076751   -1.5797058716   -2.1362032820
O        4.3268439852   -3.7442785764   -2.6003998347
F        3.6198623290    0.6665330542    2.1514671340
H       -2.2706350404    1.1848096772    0.6244527640
H       -0.7210832123    1.2309860848    2.5629283973
H       -1.6100843655   -0.0179144716   -1.4464256589
H        6.7400597682    1.9787286583   -0.8090459320
H        1.4303381225    0.0886770361    2.4587707658
H        0.5872101809   -1.1362421962   -1.5809639960
H        6.1125152949    0.2151429477   -2.4077987297
H        5.5406996099    2.1511303269    1.3526510695
H        3.5958452167   -4.3519329383   -0.2748276066
H        4.5930166517   -3.0368092026    0.3566229564
H        4.6342086880   -1.4980929029   -3.0764899099
30   

C       -1.3625088436    0.6233424295    0.5240596590
C       -0.3881175489    0.9395207099    1.4703367610
C       -1.0663487384   -0.2914052972   -0.4843307692
C        5.9468421479    1.3164323987   -0.4267225954
C        0.8805870571    0.3491092431    1.4055235977
C        0.2015118262   -0.8777168078   -0.5442845975
C        5.5133828721    0.4476387912   -1.4217474368
C        5.3468352491    1.2665827126    0.8267372927
C        1.2103537855   -0.5631871582    0.3913634498
C        3.7753018618   -0.4187882330    0.0482782042
C        4.4619223518   -0.4423223208   -1.1911358307
C        4.2842844158    0.3958272466    1.0824581031
C        2.5378759208   -1.2458880739    0.2399356253
C        4.0633446478   -2.7106974599   -1.8922526323
C        3.7487706706   -3.1995615068   -0.4722567991
N        2.5262811040   -2.5458536288    0.0429015964
N        4.1712919356   -1.3707205377   -2.1925703111
O        4.2301327391   -3.4983964332   -2.8102364487
F        3.8123721108    0.3195775368    2.3448000833
H       -2.3445888240    1.0798814463    0.5757394756
H       -0.6164606811    1.6415534093    2.2642726085
H       -1.8176879653   -0.5514615013   -1.2213781520
H        6.7668217870    2.0011558551   -0.6168996088
H        1.5747776728    0.6201616389    2.1833148950
H        0.4101447863   -1.5907011898   -1.3353614702
H        6.0202598751    0.4488319992   -2.3798412783
H        5.7099852010    1.9023594065    1.6253857253
H        3.5939149622   -4.2815465185   -0.5068895500
H        4.6031091538   -3.0056806718    0.1825789735
H        4.4988628778   -1.2184205084   -3.1377160878
30   

C       -1.3953839804    0.5925441671    0.5638235166
C       -0.3302352476    1.1088880949    1.2999666438
C       -1.1811345997   -0.4974078550   -0.2763567660
C        5.9682366420    1.3169305758   -0.2931120179
C        0.9455428988    0.5403426082    1.1948234301
C        0.0938544334   -1.0624112706   -0.3772740239
C        5.5344093732    0.5144056281   -1.3435632466
C        5.3546231005    1.2007045072    0.9505768609
C        1.1951930337   -0.5529891977    0.3490428314
C        3.7675022691   -0.4052246380    0.0524995867
C        4.4685576829   -0.3724481040   -1.1760301852
C        4.2765556227    0.3322964756    1.1412332751
C        2.5225424563   -1.2307163947    0.1990942365
C        4.0686036161   -2.6046111638   -1.9747993249
C        3.7524361612   -3.1510448576   -0.5747127082
N        2.5242452450   -2.5254250346   -0.0369212556
N        4.1827791798   -1.2533610931   -2.2201465817
O        4.2368900391   -3.3552799460   -2.9230888406
F        3.7789201412    0.1807463595    2.3896761725
H       -2.3825247363    1.0336001134    0.6451174695
H       -0.4908707814    1.9559769983    1.9572007457
H       -2.0019190025   -0.9105714979   -0.8516902026
H        6.8004192192    1.9989147322   -0.4337456496
H        1.7216074326    0.9975603325    1.7868068548
H        0.2275003069   -1.9128750026   -1.0378664103
H        6.0538988633    0.5616287431   -2.2937170476
H        5.7191489313    1.7804811938    1.7901746180
H        3.6042133664   -4.2317049452   -0.6524562709
H        4.6038622915   -2.9790512830    0.0899755075
H        4.5168880154   -1.0619795499   -3.1558355537
30   

C       -1.4013459939    0.6020698803    0.6177992776
C       -0.2712514704    1.2484955842    1.1151512411
C       -1.2580970906   -0.6192115538   -0.0359372196
C        5.9829392949    1.3016239378   -0.1745743576
C        0.9979020472    0.6771238559    0.9595581623
C        0.0105147414   -1.1873410475   -0.1882293629
C        5.5796049565    0.5336739990   -1.2628597400
C        5.3173629112    1.1646531369    1.0401715954
C        1.1767213221   -0.5509647835    0.3009932529
C        3.7504551548   -0.3999427001    0.0392127777
C        4.4971497010   -0.3432091241   -1.1608125125
C        4.2208435951    0.3077772464    1.1644245855
C        2.5016625607   -1.2251632483    0.1332735185
C        4.1046176024   -2.5465404600   -2.0356938541
C        3.7521176920   -3.1282378678   -0.6588439655
N        2.5127350850   -2.5148090893   -0.1321465002
N        4.2388703275   -1.1905114853   -2.2388224749
O        4.2928098601   -3.2722649922   -2.9995574529
F        3.6488381606    0.1502398503    2.3812430559
H       -2.3835153874    1.0454657799    0.7375039674
H       -0.3756424895    2.2009419643    1.6223543223
H       -2.1295588050   -1.1324431590   -0.4265160202
H        6.8291171412    1.9749401429   -0.2643956742
H        1.8282618789    1.2454603741    1.3499596154
H        0.0807262077   -2.1413338143   -0.7002587101
H        6.1360170886    0.5992846173   -2.1907744780
H        5.6523778826    1.7211214304    1.9074274655
H        3.6040526857   -4.2060787136   -0.7690383663
H        4.5876413142   -2.9766135616    0.0304971130
H        4.6018508483   -0.9749335353   -3.1583576109
30   

C       -1.3883054376    0.6303816248    0.6684342747
C       -0.2218460343    1.3520084698    0.9164630199
C       -1.2969222007   -0.6830132107    0.2135500055
C        5.9871166162    1.2652442988   -0.0644504564
C        1.0321794345    0.7632588111    0.7118254896
C       -0.0433015728   -1.2687769535    0.0110984887
C        5.6288853707    0.5164343909   -1.1815423681
C        5.2559187468    1.1277190096    1.1116156854
C        1.1572832009   -0.5583686788    0.2527167738
C        3.7284524726   -0.4144806634    0.0166424526
C        4.5319507715   -0.3479801059   -1.1462783398
C        4.1434907804    0.2849390840    1.1693195557
C        2.4754256581   -1.2336682763    0.0526186938
C        4.1432380743   -2.5223290543   -2.0948393736
C        3.7323961323   -3.1320833224   -0.7477993496
N        2.4839596448   -2.5162821213   -0.2460086828
N        4.3106682211   -1.1650822499   -2.2551505827
O        4.3575591662   -3.2261346536   -3.0694412738
F        3.4859946041    0.1475786587    2.3448119104
H       -2.3589214556    1.0871243910    0.8261506246
H       -0.2865278874    2.3762978780    1.2656485803
H       -2.1972695007   -1.2541271113    0.0171047129
H        6.8452124112    1.9283057091   -0.1030099241
H        1.8928856227    1.3894690680    0.8988861986
H       -0.0149179624   -2.2950594634   -0.3395323001
H        6.2308091450    0.5885057034   -2.0801229009
H        5.5480805585    1.6759653915    1.9994096626
H        3.5745251994   -4.2046226077   -0.8910530415
H        4.5450275406   -3.0100410646   -0.0260195002
H        4.7143404678   -0.9317746441   -3.1531535018
30   

C       -1.3666754515    0.6558655565    0.7264521082
C       -0.1966050822    1.4144007177    0.7282205372
C       -1.2970179180   -0.7120772194    0.4692624830
C        5.9774100826    1.2272845956    0.0311075442
C        1.0397534285    0.8075293991    0.4757963760
C       -0.0606965203   -1.3159278834    0.2182129463
C        5.6694265699    0.4891365825   -1.1077300400
C        5.1817346535    1.0958376224    1.1648332491
C        1.1405478513   -0.5688355882    0.2159807932
C        3.7055330177   -0.4373717280   -0.0122069439
C        4.5638132521   -0.3647566828   -1.1360101407
C        4.0597434338    0.2642999846    1.1603424698
C        2.4475223083   -1.2448981690   -0.0352086912
C        4.1704814898   -2.5062135549   -2.1634553580
C        3.6947347353   -3.1441375026   -0.8530101841
N        2.4432283056   -2.5174969366   -0.3735288069
N        4.3811215785   -1.1509839815   -2.2739576019
O        4.4066297492   -3.1859349697   -3.1500155260
F        3.3293372248    0.1457699513    2.2938345584
H       -2.3240178706    1.1262213851    0.9209569239
H       -0.2455320040    2.4800116864    0.9214091076
H       -2.2007815564   -1.3108617944    0.4642286548
H        6.8428555426    1.8817964683    0.0410448462
H        1.9088944315    1.4523310814    0.4651589788
H       -0.0443421211   -2.3835744267    0.0261719148
H        6.3155494925    0.5642408142   -1.9748278674
H        5.4284341209    1.6419976204    2.0676123993
H        3.5193112733   -4.2080823829   -1.0347824813
H        4.4830554788   -3.0626966298   -0.0992969942
H        4.8270607441   -0.9016412591   -3.1473337466
30   

C       -1.3429743176    0.6747019655    0.7788440033
C       -0.2022164485    1.4436071473    0.5455431126
C       -1.2602965049   -0.7161632368    0.7161045961
C        5.9605389266    1.1976761989    0.1148704090
C        1.0184729035    0.8235883441    0.2530448900
C       -0.0392795065   -1.3331217240    0.4242620859
C        5.6995578515    0.4684049838   -1.0410559498
C        5.1088830613    1.0719600349    1.2073482307
C        1.1291328790   -0.5746078033    0.1911146548
C        3.6845206585   -0.4559019296   -0.0397823521
C        4.5897519409   -0.3764184139   -1.1268093902
C        3.9819066985    0.2497284269    1.1470055113
C        2.4217998663   -1.2480046602   -0.1205837588
C        4.1846864473   -2.4796943059   -2.2377650884
C        3.6486949861   -3.1475974485   -0.9678258268
N        2.3993834653   -2.5080183656   -0.5008543237
N        4.4420521262   -1.1299931892   -2.2919320378
O        4.4346836028   -3.1314682457   -3.2396225467
F        3.1942199908    0.1433538651    2.2425923524
H       -2.2887788784    1.1545951896    1.0040254186
H       -0.2627907729    2.5252037836    0.5864823396
H       -2.1421461471   -1.3215648738    0.8925831712
H        6.8297524704    1.8450098387    0.1687058174
H        1.8735546911    1.4601679327    0.0585674089
H       -0.0039649988   -2.4166992779    0.3822250186
H        6.3835518493    0.5470979669   -1.8782782386
H        5.3141758718    1.6162897640    2.1215321060
H        3.4527897604   -4.1996630825   -1.1927590702
H        4.4146463490   -3.1136046848   -0.1879220936
H        4.9254156214   -0.8643401940   -3.1402509764
30   

C       -1.3258188075    0.6897533116    0.8275281361
C       -0.2425820848    1.4405038639    0.3661334862
C       -1.1988096409   -0.6934571235    0.9663571728
C        5.9463827171    1.1518968646    0.2131722899
C        0.9659650511    0.8097103227    0.0480803237
C        0.0102745434   -1.3213091238    0.6483073333
C        5.7239193305    0.4295149108   -0.9547458028
C        5.0471695079    1.0369085343    1.2675364715
C        1.1181926578   -0.5779453543    0.1932471059
C        3.6627337429   -0.4808333631   -0.0367872791
C        4.6087213455   -0.4018728725   -1.0896223250
C        3.9141332939    0.2282138279    1.1594328832
C        2.3944551000   -1.2527502402   -0.1713677642
C        4.1865382457   -2.4686311618   -2.2722608489
C        3.5941555117   -3.1580665640   -1.0407635207
N        2.3504090859   -2.5011038539   -0.5840936263
N        4.4905331797   -1.1281930229   -2.2756283813
O        4.4459791767   -3.0965844798   -3.2868101663
F        3.0802259841    0.1367985823    2.2216381632
H       -2.2627948554    1.1773229812    1.0722369781
H       -0.3394756270    2.5139143097    0.2496304985
H       -2.0374976238   -1.2837456117    1.3176781749
H        6.8199858697    1.7889924945    0.3046702179
H        1.7851464130    1.4159629649   -0.3224205282
H        0.0888488458   -2.3980525151    0.7563076964
H        6.4404175453    0.5064742966   -1.7644828221
H        5.2187321218    1.5799377090    2.1894053918
H        3.3764598742   -4.1967903117   -1.3044032041
H        4.3385515877   -3.1703025116   -0.2396775823
H        5.0080327494   -0.8527291245   -3.1003819283
30   

C       -1.3046328660    0.6989603586    0.8457334627
C       -0.3092787466    1.4099367853    0.1702008610
C       -1.0972393093   -0.6433393217    1.1725700527
C        5.9614732565    1.1062704822    0.2981798477
C        0.8932033564    0.7807096556   -0.1727417035
C        0.1057532483   -1.2697546438    0.8289736397
C        5.7649611720    0.4110741244   -0.8903529388
C        5.0254036832    0.9884173814    1.3191245495
C        1.1242359914   -0.5607883036    0.1655193635
C        3.6625071069   -0.4870004501   -0.0558214265
C        4.6411742679   -0.3982351811   -1.0784190001
C        3.8834515757    0.2011600124    1.1593805981
C        2.3878584588   -1.2329274708   -0.2481526963
C        4.2005238572   -2.4127237169   -2.3492409770
C        3.5593127436   -3.1334652450   -1.1618023571
N        2.3227950989   -2.4643635264   -0.7038324825
N        4.5443205251   -1.0836139749   -2.2907567951
O        4.4674125784   -3.0066835336   -3.3821258522
F        3.0153279857    0.1091609497    2.1937211015
H       -2.2372972014    1.1847198292    1.1097217061
H       -0.4707025722    2.4490640793   -0.0930931619
H       -1.8696280115   -1.2029320497    1.6878253636
H        6.8417093392    1.7268126922    0.4305446629
H        1.6502888050    1.3434265415   -0.7081068841
H        0.2526273344   -2.3160369441    1.0754770306
H        6.5073315296    0.4943560317   -1.6757738889
H        5.1741371780    1.5130832279    2.2554634277
H        3.3211012566   -4.1544524684   -1.4728007595
H        4.2840105502   -3.1986718168   -0.3453996940
H        5.0913880228   -0.7917866484   -3.0904438973
30   

C       -1.3150896477    0.7057050581    0.8560809023
C       -0.4309263321    1.3345404848   -0.0254428858
C       -0.9981883735   -0.5512239890    1.3786951402
C        5.9757529768    1.0336771614    0.4057142535
C        0.7711076543    0.7097294566   -0.3780236384
C        0.2041419273   -1.1732929924    1.0246653748
C        5.7914924588    0.3727487248   -0.8038405481
C        5.0139894241    0.9117913312    1.4016350857
C        1.1110176950   -0.5398070123    0.1575497092
C        3.6531758908   -0.5034982204   -0.0379993061
C        4.6554690269   -0.4071120875   -1.0374666019
C        3.8597385097    0.1531814071    1.1975257521
C        2.3687059663   -1.2163693691   -0.2797109710
C        4.1913361915   -2.3670102732   -2.3868407993
C        3.5085566831   -3.1124898805   -1.2390894679
N        2.2813701990   -2.4288237366   -0.7781081858
N        4.5695794414   -1.0511119377   -2.2733181047
O        4.4619408637   -2.9298614304   -3.4360292152
F        2.9683923428    0.0574811257    2.2113550593
H       -2.2476217238    1.1875028277    1.1276762226
H       -0.6791135300    2.3045664931   -0.4409376625
H       -1.6858778854   -1.0485628752    2.0531673391
H        6.8652582752    1.6321446661    0.5730249654
H        1.4443046449    1.2003683517   -1.0726898464
H        0.4385342458   -2.1561965365    1.4191456815
H        6.5523255703    0.4611706848   -1.5707951018
H        5.1515770845    1.4115510511    2.3531569574
H        3.2499379206   -4.1147916920   -1.5918136365
H        4.2156959543   -3.2267628233   -0.4127727862
H        5.1405717671   -0.7461987643   -3.0511086646
30   

C       -1.3380819602    0.7475586586    0.8333242067
C       -0.5734162689    1.2320261360   -0.2323595612
C       -0.9009374806   -0.3694987668    1.5512488599
C        5.9911151978    0.9683623815    0.5318686432
C        0.6306379848    0.6048018914   -0.5737384607
C        0.3028271827   -0.9947171373    1.2075534486
C        5.8052675860    0.3605435415   -0.7046401407
C        5.0193894961    0.8227411004    1.5144657000
C        1.0910485077   -0.4983622295    0.1556522339
C        3.6456737061   -0.5101658929    0.0090855299
C        4.6580371356   -0.3892652437   -0.9783584360
C        3.8538601531    0.0933528864    1.2712674634
C        2.3503728990   -1.1873814446   -0.2767086218
C        4.1722137653   -2.2801344903   -2.4165336511
C        3.4607073151   -3.0606909986   -1.3106844250
N        2.2426274827   -2.3703710062   -0.8363037097
N        4.5718734986   -0.9774288928   -2.2418927426
O        4.4438303055   -2.8014243568   -3.4867233499
F        2.9551129726   -0.0262796867    2.2750694913
H       -2.2719677966    1.2312068366    1.0968674773
H       -0.9163325754    2.0903118402   -0.7988958424
H       -1.4968248736   -0.7565935678    2.3699247620
H        6.8889472277    1.5446272445    0.7297759917
H        1.2109308097    0.9777419247   -1.4107739899
H        0.6309904762   -1.8717469537    1.7547295501
H        6.5732258343    0.4678737083   -1.4620048836
H        5.1576407487    1.2816588345    2.4862325423
H        3.1853939243   -4.0408200841   -1.7100141652
H        4.1547974950   -3.2255441568   -0.4818722957
H        5.1561358147   -0.6493650887   -3.0001607017
30   

C       -1.3592837314    0.7318282024    0.7412166965
C       -0.7068330174    0.9998997819   -0.4659974779
C       -0.8052418589   -0.1813207704    1.6432703679
C        6.0146301376    0.8814942544    0.6285561238
C        0.5047877718    0.3655113329   -0.7641132626
C        0.4053321500   -0.8158824252    1.3427804147
C        5.8049790590    0.3500781347   -0.6381856315
C        5.0630962289    0.6724414522    1.6186492467
C        1.0873620597   -0.5235980986    0.1491803092
C        3.6572194063   -0.5665734835    0.0614889492
C        4.6532724048   -0.3838355891   -0.9346528934
C        3.8929819565   -0.0423778749    1.3542806624
C        2.3549684202   -1.2225114471   -0.2563019269
C        4.1617313686   -2.1933388234   -2.4691869766
C        3.4562563092   -3.0332229368   -1.4038328367
N        2.2406256943   -2.3635777435   -0.8955476777
N        4.5483755695   -0.8970925810   -2.2291686966
O        4.4305494051   -2.6553704201   -3.5669669084
F        3.0214639294   -0.2253687440    2.3700710995
H       -2.2983179617    1.2220974319    0.9722644405
H       -1.1425821056    1.6946755022   -1.1749745904
H       -1.3169173720   -0.4050069988    2.5724221398
H        6.9154445961    1.4468001833    0.8437503393
H        0.9968043237    0.5658101527   -1.7098795650
H        0.8150294111   -1.5431783102    2.0349200831
H        6.5579893959    0.5049072786   -1.4023099572
H        5.2211189659    1.0701166592    2.6141006002
H        3.1785342105   -3.9905471034   -1.8536063678
H        4.1523900240   -3.2406758782   -0.5863814773
H        5.1221315614   -0.5236834343   -2.9743605987
30   

C       -1.3743743479    0.7201762180    0.6212146144
C       -0.8269817553    0.7176001206   -0.6641960555
C       -0.7135103284    0.0563803084    1.6581147026
C        6.0545230465    0.7935953876    0.6739233852
C        0.3906604434    0.0718642845   -0.9058593123
C        0.5029540488   -0.5923684294    1.4155291236
C        5.7823690160    0.3795630190   -0.6233673607
C        5.1635824548    0.4708193825    1.6887207655
C        1.0926369648   -0.5527874913    0.1381022851
C        3.6785600564   -0.6269425460    0.0971031487
C        4.6244266389   -0.3417357835   -0.9250507343
C        3.9881746813   -0.2346692556    1.4209643196
C        2.3643464633   -1.2594825517   -0.2413071938
C        4.1225818073   -2.0491008633   -2.5602320034
C        3.4617457788   -2.9719546270   -1.5345141742
N        2.2481124314   -2.3499954842   -0.9647122093
N        4.4683866923   -0.7556922550   -2.2495937505
O        4.3757727732   -2.4333236782   -3.6912321421
F        3.1949680251   -0.5433516888    2.4662303159
H       -2.3176096484    1.2205393236    0.8096398543
H       -1.3480044449    1.2110334962   -1.4768034032
H       -1.1510051142    0.0305478516    2.6496698891
H        6.9594267505    1.3505792152    0.8936423372
H        0.7993196213    0.0621569499   -1.9109262021
H        0.9566987009   -1.1507900717    2.2236202766
H        6.4926845609    0.6136663084   -1.4079358864
H        5.3757254197    0.7686152278    2.7087010816
H        3.1883092745   -3.9033558800   -2.0380896821
H        4.1799662661   -3.2167811987   -0.7470060512
H        5.0059826799   -0.3170757679   -2.9861488260
30   

C       -1.3457800730    0.7960247466    0.5082822897
C       -0.9576197603    0.4088689932   -0.7749736645
C       -0.5347626978    0.4817735958    1.6001698007
C        6.0158710717    0.6980364110    0.7981090058
C        0.2400330362   -0.2886128289   -0.9646328797
C        0.6642558790   -0.2163800886    1.4124874775
C        5.6760262238    0.4816797627   -0.5326810422
C        5.2211508057    0.1509174702    1.7997065689
C        1.0719711900   -0.6146682061    0.1226275039
C        3.6612515128   -0.7072596182    0.1432063242
C        4.5313102695   -0.2423405235   -0.8736555115
C        4.0626629313   -0.5657534417    1.4884966808
C        2.3452140741   -1.3322541737   -0.2156694625
C        4.0592068776   -1.8165794112   -2.6328583807
C        3.4896708898   -2.8690340851   -1.6722100748
N        2.2593781007   -2.3676771000   -1.0221633904
N        4.3262704642   -0.5284182528   -2.2246201472
O        4.2973458093   -2.0874790296   -3.7994217427
F        3.3865046351   -1.1568018757    2.4964912556
H       -2.2742331314    1.3360165571    0.6565539570
H       -1.5839601688    0.6481059088   -1.6269077624
H       -0.8365084086    0.7767867082    2.5988116706
H        6.9096386476    1.2591365408    1.0505428762
H        0.5238716246   -0.5773506061   -1.9715474293
H        1.2383361429   -0.4437217548    2.2957672262
H        6.3271465356    0.8617147880   -1.3114480630
H        5.5031922645    0.2697109531    2.8390676707
H        3.2544783437   -3.7687526377   -2.2475898715
H        4.2452997184   -3.1369885938   -0.9282464287
H        4.8088417374    0.0044112853   -2.9366848662
30   

C       -1.3582637499    0.8061162841    0.4889510269
C       -1.1130411160    0.1681754372   -0.7270749336
C       -0.3953809865    0.7619083244    1.4977193853
C        6.0116309493    0.6151560352    0.9010925245
C        0.0869787650   -0.5221218164   -0.9290982367
C        0.8067838404    0.0733050048    1.2972191805
C        5.6853279063    0.4838866332   -0.4452279781
C        5.1986967331    0.0181834697    1.8602519126
C        1.0590044750   -0.6080423121    0.0866607032
C        3.6489236996   -0.7110058632    0.1371393470
C        4.5360644343   -0.2040319166   -0.8410708261
C        4.0347398802   -0.6617201150    1.4921734395
C        2.3335954269   -1.3137094197   -0.2598973565
C        4.0788836773   -1.6964601598   -2.6696955120
C        3.5100353795   -2.7916064924   -1.7552701348
N        2.2687958959   -2.3284543530   -1.0962622685
N        4.3453788084   -0.4267303679   -2.2054296413
O        4.3231338638   -1.9182641940   -3.8453711373
F        3.3257697383   -1.3032872205    2.4492230863
H       -2.2887005665    1.3401943778    0.6459914085
H       -1.8517304736    0.2089190312   -1.5195660283
H       -0.5766421762    1.2685193507    2.4389157895
H        6.9099260816    1.1473679659    1.1964306964
H        0.2499313144   -0.9957029398   -1.8917539600
H        1.5206115779    0.0984947362    2.1053097550
H        6.3515826766    0.8982366305   -1.1930965968
H        5.4705166333    0.0688491802    2.9078688097
H        3.2886322143   -3.6700761695   -2.3677356153
H        4.2616288278   -3.0826250355   -1.0158935228
H        4.8346397473    0.1363932668   -2.8890248432
30   

C       -1.3836888940    0.7697879266    0.5317955845
C       -1.2454929810   -0.0564411780   -0.5830949046
C       -0.3050225746    0.9429275108    1.3986906826
C        6.0134945311    0.5398609695    0.9952449085
C       -0.0368606442   -0.7195874896   -0.8227335962
C        0.9053281355    0.2819212291    1.1601751687
C        5.7267372598    0.4464563556   -0.3634648101
C        5.1503681388   -0.0470416173    1.9160712281
C        1.0542852004   -0.5929591113    0.0599327243
C        3.6412978568   -0.7031096428    0.1279889030
C        4.5717431627   -0.1993474883   -0.8108607681
C        3.9791767640   -0.6827706911    1.4966308381
C        2.3300522376   -1.2797451729   -0.3125517803
C        4.1329486570   -1.6317041600   -2.6897797426
C        3.5281955352   -2.7392131933   -1.8149844322
N        2.2782586188   -2.2775961796   -1.1711259237
N        4.4159192475   -0.3817326621   -2.1851771576
O        4.3999351965   -1.8282510931   -3.8650281992
F        3.1996962713   -1.2942475194    2.4193033733
H       -2.3206156211    1.2830880370    0.7170011514
H       -2.0748843545   -0.1831909587   -1.2696913406
H       -0.4016993643    1.5997381246    2.2557779058
H        6.9172611000    1.0383865143    1.3300829434
H        0.0303901655   -1.3401562000   -1.7101258996
H        1.7139513208    0.4878485793    1.8457439434
H        6.4280985463    0.8571436689   -1.0806465895
H        5.3855248427   -0.0197309824    2.9734259659
H        3.3098962381   -3.5997843782   -2.4533957496
H        4.2591535049   -3.0581066527   -1.0665096713
H        4.9336742607    0.1893218971   -2.8406271939
30   

C       -1.3959364359    0.7308933266    0.5957828800
C       -1.3379368471   -0.2479746048   -0.3956908345
C       -0.2357910546    1.0821016972    1.2850093578
C        6.0054971613    0.4600394067    1.0702669989
C       -0.1262386659   -0.8839998042   -0.6885068288
C        0.9769444791    0.4480015756    0.9929684667
C        5.7684874836    0.3927555462   -0.2994978640
C        5.0854194119   -0.1021572894    1.9499715866
C        1.0523946150   -0.5748946119    0.0188859514
C        3.6319643123   -0.6998571357    0.0949870440
C        4.6115399183   -0.2088962415   -0.8008861747
C        3.9111388909   -0.6928471401    1.4777068153
C        2.3251406760   -1.2411842249   -0.3933222778
C        4.1878534751   -1.5711521716   -2.7363981264
C        3.5281726900   -2.6843158914   -1.9122794291
N        2.2747767489   -2.2100987679   -1.2848717620
N        4.4983251884   -0.3492009914   -2.1841569745
O        4.4826537006   -1.7406889427   -3.9092064980
F        3.0601350053   -1.2593828133    2.3651799180
H       -2.3351178967    1.2235349056    0.8212589290
H       -2.2331121102   -0.5152918678   -0.9457389756
H       -0.2715527079    1.8564976854    2.0428675214
H        6.9114563542    0.9241376137    1.4461835510
H       -0.1286518846   -1.6295122947   -1.4765720664
H        1.8500128188    0.7906411743    1.5311087208
H        6.5092235128    0.7914667316   -0.9830851598
H        5.2753325953   -0.0871795546    3.0166626715
H        3.3037915011   -3.5189365889   -2.5822436463
H        4.2300725033   -3.0461127390   -1.1555831080
H        5.0534782448    0.2243292783   -2.8059790307
30   

C       -1.3921573492    0.6951801583    0.6659554706
C       -1.3800389666   -0.4103955817   -0.1848336202
C       -0.1886338598    1.1980903081    1.1601926544
C        5.9903133499    0.3835188877    1.1511297849
C       -0.1686602618   -1.0188420997   -0.5330618207
C        1.0232108396    0.5912567001    0.8125740765
C        5.8114165117    0.3296507196   -0.2278511158
C        5.0107866850   -0.1430158506    1.9869928749
C        1.0564389666   -0.5485410046   -0.0233314457
C        3.6261316705   -0.6973844874    0.0657491627
C        4.6576979422   -0.2288468357   -0.7841514057
C        3.8387605042   -0.6908230237    1.4612232705
C        2.3243245580   -1.1945799769   -0.4736934371
C        4.2491096065   -1.5203841634   -2.7753721569
C        3.5208105169   -2.6291595969   -2.0080182122
N        2.2680659059   -2.1301731917   -1.3995551919
N        4.5946624465   -0.3326047887   -2.1739696159
O        4.5751474055   -1.6660660063   -3.9430941280
F        2.9232362717   -1.2123933935    2.3109448793
H       -2.3312225352    1.1664039091    0.9336929403
H       -2.3112601874   -0.7984568715   -0.5817555106
H       -0.1914829853    2.0672494887    1.8081355007
H        6.8944341556    0.8142450705    1.5688755729
H       -0.2046645679   -1.8703425797   -1.2042860061
H        1.9330444984    1.0388723111    1.1922653259
H        6.5936629717    0.7086275669   -0.8754939132
H        5.1504506282   -0.1317696956    3.0614841185
H        3.2853992205   -3.4329432011   -2.7110923895
H        4.1854343724   -3.0419859981   -1.2438547935
H        5.1931399130    0.2355586536   -2.7594826520
