14   
Generated by ForceBalance from scan.xyz: Frame 1 of 24
C       -2.2711026977   -0.2936286754   -0.2074790884
C       -0.1245566080   -0.5439220356   -0.0550884899
C        1.3262029606   -0.9262018340   -0.0538025474
C       -0.5163257408    0.9485627850   -0.0897087838
N        0.5772677538    2.2271564264   -2.0400723964
N       -1.9497758874    0.9539507858   -0.2864565437
N       -1.1928613899   -1.2434089538   -0.0634630281
N        0.1408339338    1.6692743576   -1.1873620185
N        1.6212992026   -2.2032622486    0.2359790905
O        2.1084085731   -0.0166711869   -0.3408980989
H       -3.2978284975   -0.6463657073   -0.2473571369
H       -0.2103404490    1.4820650661    0.8203883314
H        0.9004318878   -2.9179853792    0.2374270670
H        2.5904618956   -2.5005519240    0.1608167421
14   
Generated by ForceBalance from scan.xyz: Frame 2 of 24
C       -2.2736092133   -0.2973803816   -0.2032892396
C       -0.1283415836   -0.5488450909   -0.0351443379
C        1.3202647003   -0.9393722505   -0.0321476562
C       -0.5182787161    0.9446605914   -0.0820138623
N        0.5760090216    2.2081837958   -2.0419295589
N       -1.9512318544    0.9498249727   -0.2843994422
N       -1.1973160284   -1.2472744648   -0.0497757433
N        0.1399512084    1.6565313257   -1.1849731653
N        1.6123573707   -2.2116326381    0.3049187143
O        2.1035835690   -0.0503536575   -0.3709811922
H       -3.3003604930   -0.6494617791   -0.2481165323
H       -0.2152140316    1.4861540009    0.8243574446
H        0.9338825313   -2.9467993738    0.1261607340
H        2.5891659729   -2.4815196869    0.2090973752
14   
Generated by ForceBalance from scan.xyz: Frame 3 of 24
C       -2.2771121904   -0.2932917802   -0.1975535060
C       -0.1326806233   -0.5491417951   -0.0208997292
C        1.3131336487   -0.9505655188   -0.0154392734
C       -0.5195300874    0.9461781229   -0.0774413868
N        0.5729647722    2.1935250267   -2.0488427431
N       -1.9525424512    0.9532924367   -0.2808838019
N       -1.2037116087   -1.2444592325   -0.0370131318
N        0.1373305281    1.6494018192   -1.1868524951
N        1.5985267530   -2.2241377045    0.3544137769
O        2.0988421801   -0.0834151812   -0.3968762623
H       -3.3044899787   -0.6433980510   -0.2437475518
H       -0.2157905594    1.4943726224    0.8246724902
H        1.0035178270   -2.9694843504   -0.0007955806
H        2.5905934331   -2.4475508892    0.2802780477
14   
Generated by ForceBalance from scan.xyz: Frame 4 of 24
C       -2.2843427591   -0.2786379536   -0.1865912551
C       -0.1409468549   -0.5453074633   -0.0090985000
C        1.3008797879   -0.9624581792   -0.0017851257
C       -0.5207488932    0.9527064314   -0.0764468568
N        0.5696541827    2.1783861353   -2.0625981066
N       -1.9543183798    0.9661635612   -0.2765455718
N       -1.2164689337   -1.2339171006   -0.0186999457
N        0.1342061718    1.6444400651   -1.1941495073
N        1.5719959561   -2.2462320190    0.3789556991
O        2.0926503383   -0.1145077908   -0.4080660486
H       -3.3135991998   -0.6237155400   -0.2288762070
H       -0.2121931189    1.5074337533    0.8200301685
H        1.1028319460   -2.9854624159   -0.1429782490
H        2.5795400845   -2.4149166970    0.3743232466
14   
Generated by ForceBalance from scan.xyz: Frame 5 of 24
C       -2.2932529092   -0.2665984412   -0.1732639747
C       -0.1502698953   -0.5456783105   -0.0068945889
C        1.2877110489   -0.9776239105   -0.0005004004
C       -0.5221791210    0.9555716814   -0.0777062716
N        0.5626146522    2.1616524367   -2.0789746477
N       -1.9569867813    0.9764248272   -0.2685081246
N       -1.2306313189   -1.2268680026   -0.0071657181
N        0.1269653318    1.6386059946   -1.2039754087
N        1.5431448927   -2.2769329264    0.3811198107
O        2.0850623952   -0.1434060039   -0.4174300314
H       -3.3246506116   -0.6059619268   -0.2097188460
H       -0.2041299272    1.5130985560    0.8137007671
H        1.2412436250   -2.9889322983   -0.2855000510
H        2.5549148646   -2.3886609822    0.4873092354
14   
Generated by ForceBalance from scan.xyz: Frame 6 of 24
C       -2.3037383874   -0.2481331062   -0.1536689261
C       -0.1611465676   -0.5446078701   -0.0076442793
C        1.2723232697   -0.9943449035   -0.0056743491
C       -0.5227721591    0.9604804913   -0.0800406883
N        0.5541942237    2.1456489230   -2.0979640003
N       -1.9591622226    0.9922254809   -0.2565229376
N       -1.2478236446   -1.2156919114    0.0075315064
N        0.1185897828    1.6347200785   -1.2157571430
N        1.5061292261   -2.3157503031    0.3614835340
O        2.0784764276   -0.1672583608   -0.4129432508
H       -3.3380272907   -0.5796187549   -0.1796189195
H       -0.1911374835    1.5190585125    0.8057171319
H        1.4085012291   -2.9709185682   -0.4178892089
H        2.4955174980   -2.3816903770    0.6215529841
14   
Generated by ForceBalance from scan.xyz: Frame 7 of 24
C       -1.6666252605   -0.1323623868   -0.0196381501
C        0.4268436352   -0.7021207380   -0.0103987461
C        1.8048849281   -1.3051279891   -0.1050373535
C        0.2506995617    0.8177106534    0.2094784144
N        1.5080731843    2.2339461007   -1.5360327591
N       -1.1693771285    1.0549393002    0.0744330420
N       -0.7335126606   -1.2332826439   -0.0694876871
N        0.9904421755    1.6175906878   -0.7738833782
N        1.9317886955   -2.6590309262    0.1166207205
O        2.7078264908   -0.4764432525   -0.1603060017
H       -2.7341606826   -0.3280399762   -0.0674341311
H        0.6432736732    1.1386650766    1.1841291439
H        2.2809398388   -3.2011444887   -0.6747801309
H        1.0310151551   -3.0720629834    0.3655128358
14   
Generated by ForceBalance from scan.xyz: Frame 8 of 24
C       -1.6812233225   -0.1149174743   -0.0049150436
C        0.4065417014   -0.7014532553   -0.0073381715
C        1.7804365327   -1.3069917823   -0.1141025047
C        0.2458148505    0.8191999480    0.2100551380
N        1.5003367594    2.2213470843   -1.5489056352
N       -1.1731742963    1.0682004229    0.0842261344
N       -0.7578148498   -1.2239195818   -0.0601186189
N        0.9857356436    1.6091952153   -0.7813496529
N        1.8928834648   -2.6497896330    0.1108630789
O        2.6886918685   -0.4834031789   -0.2016172255
H       -2.7506702165   -0.3014859749   -0.0455984783
H        0.6481080226    1.1395889455    1.1808921206
H        2.4246658625   -3.1824981434   -0.5765834538
H        0.9938143507   -3.1078373860    0.2603388012
14   
Generated by ForceBalance from scan.xyz: Frame 9 of 24
C       -1.6769083762   -0.1026142149    0.0023556155
C        0.4039944020   -0.7091057633    0.0065995992
C        1.7725830803   -1.3198557947   -0.1073217206
C        0.2592499613    0.8126364492    0.2216015949
N        1.5189134122    2.2016075227   -1.5443925386
N       -1.1573397752    1.0753656488    0.0938906210
N       -0.7646039631   -1.2209851313   -0.0522790680
N        1.0065499636    1.5910256584   -0.7740615891
N        1.8741281566   -2.6572633903    0.1009698821
O        2.6883830673   -0.5066416270   -0.2286480100
H       -2.7480941194   -0.2783837105   -0.0406969234
H        0.6648763876    1.1333682529    1.1908507184
H        2.5535760468   -3.1578496608   -0.4689359983
H        0.9887540903   -3.1568881674    0.1627190699
14   
Generated by ForceBalance from scan.xyz: Frame 10 of 24
C       -1.6819614344   -0.0916653470    0.0110311867
C        0.3946967833   -0.7109861408    0.0121729390
C        1.7597233596   -1.3251477023   -0.1073108354
C        0.2602441579    0.8118403448    0.2244011370
N        1.5204140311    2.1885972193   -1.5507947971
N       -1.1551166498    1.0832100417    0.1007754836
N       -0.7769356394   -1.2159282048   -0.0437337961
N        1.0088180162    1.5824118899   -0.7764779542
N        1.8483329158   -2.6611326532    0.0583195441
O        2.6817245231   -0.5198213676   -0.2474363018
H       -2.7543207440   -0.2608626547   -0.0289053781
H        0.6712259559    1.1330656325    1.1911759876
H        2.6391899478   -3.1374382985   -0.3687122664
H        0.9843767646   -3.1967749737    0.0836648681
14   
Generated by ForceBalance from scan.xyz: Frame 11 of 24
C       -1.6864769176   -0.0850516611    0.0185579093
C        0.3866655169   -0.7140967067    0.0146421741
C        1.7497605706   -1.3295823749   -0.1078136594
C        0.2606836077    0.8092541457    0.2263315747
N        1.5212637571    2.1761804197   -1.5560932136
N       -1.1537543365    1.0873603610    0.1065927952
N       -0.7872825632   -1.2137967010   -0.0385491368
N        1.0100229258    1.5737934169   -0.7785641445
N        1.8289256721   -2.6661944799   -0.0054601330
O        2.6752124444   -0.5272390850   -0.2529205229
H       -2.7597402732   -0.2489556324   -0.0191543341
H        0.6764749420    1.1302105638    1.1910766558
H        2.6952877106   -3.1240293978   -0.2751786865
H        0.9852133300   -3.2300155603    0.0289807330
14   
Generated by ForceBalance from scan.xyz: Frame 12 of 24
C       -1.6895502242   -0.0861357649    0.0244842207
C        0.3823214129   -0.7184040170    0.0143557730
C        1.7454264734   -1.3332239805   -0.1083419527
C        0.2595639803    0.8049685581    0.2275981334
N        1.5167570265    2.1669592776   -1.5608508482
N       -1.1547918515    1.0854091108    0.1119686091
N       -0.7924326989   -1.2164650707   -0.0349924324
N        1.0071883574    1.5665183973   -0.7807052053
N        1.8143455493   -2.6714423705   -0.0878113192
O        2.6734734736   -0.5306396770   -0.2400919865
H       -2.7631647734   -0.2483189320   -0.0104661738
H        0.6794777198    1.1261343081    1.1903834022
H        2.7189768482   -3.1224612188   -0.1894892559
H        0.9836470560   -3.2463755806    0.0061095548
14   
Generated by ForceBalance from scan.xyz: Frame 13 of 24
C       -1.6864424629   -0.0786703580    0.0334769224
C        0.3855143558   -0.7103512078    0.0121783525
C        1.7486361965   -1.3260370318   -0.1099798666
C        0.2633716522    0.8130168058    0.2244543934
N        1.5151503075    2.1692323839   -1.5725926032
N       -1.1514225657    1.0932081479    0.1153078006
N       -0.7894036263   -1.2089398563   -0.0273378236
N        1.0072916316    1.5726078911   -0.7884080750
N        1.8084172799   -2.6657325031   -0.1774575702
O        2.6784596597   -0.5230968833   -0.2214757301
H       -2.7601998000   -0.2411504252    0.0043406061
H        0.6879567388    1.1356615261    1.1846541986
H        2.7156275123   -3.1179655480   -0.1060556805
H        0.9791588836   -3.2300189047   -0.0209115351
14   
Generated by ForceBalance from scan.xyz: Frame 14 of 24
C       -1.6795086779   -0.0798638321    0.0409682219
C        0.3947786576   -0.7046407688    0.0145095941
C        1.7585888887   -1.3205151545   -0.1109943360
C        0.2680627322    0.8189007989    0.2242945184
N        1.5083547805    2.1723984393   -1.5826858660
N       -1.1483557415    1.0939057196    0.1199152918
N       -0.7786742927   -1.2070672417   -0.0194153930
N        1.0043073167    1.5781875651   -0.7942096065
N        1.8128750405   -2.6618401787   -0.2442718392
O        2.6847270363   -0.5153818425   -0.2243097270
H       -2.7527811353   -0.2461517775    0.0155675565
H        0.6953301800    1.1463659249    1.1816543418
H        2.6842981860   -3.1263794623   -0.0013157087
H        0.9671624728   -3.1987837878   -0.0712107615
14   
Generated by ForceBalance from scan.xyz: Frame 15 of 24
C       -1.6706925732   -0.0867628237    0.0501652811
C        0.4085824566   -0.6953532627    0.0172746921
C        1.7754523627   -1.3079846771   -0.1113008618
C        0.2703658005    0.8285079809    0.2205109082
N        1.4928462749    2.1787724557   -1.6010177479
N       -1.1489436836    1.0915736736    0.1221492337
N       -0.7611982117   -1.2068780874   -0.0088495646
N        0.9940710015    1.5885206404   -0.8062341801
N        1.8284761151   -2.6516552307   -0.2946242902
O        2.6924483267   -0.4962164962   -0.2342651392
H       -2.7426708436   -0.2617697117    0.0292252709
H        0.6998947126    1.1649550450    1.1737496863
H        2.6211529604   -3.1431960088    0.1132579700
H        0.9514201079   -3.1521833340   -0.1641853295
14   
Generated by ForceBalance from scan.xyz: Frame 16 of 24
C       -1.6591955043   -0.1032419088    0.0593600172
C        0.4253457573   -0.6961269406    0.0241837593
C        1.7937975058   -1.3067258391   -0.1140059617
C        0.2757245643    0.8273442942    0.2243314232
N        1.4774099013    2.1837035121   -1.6063698229
N       -1.1462831616    1.0789996872    0.1301672389
N       -0.7409358074   -1.2161553064    0.0013238527
N        0.9882670252    1.5905869337   -0.8077086366
N        1.8526312512   -2.6559918521   -0.3258408753
O        2.7000701160   -0.4890124234   -0.2589268670
H       -2.7298476043   -0.2865749735    0.0413645225
H        0.7055990713    1.1706217528    1.1750157846
H        2.5300739732   -3.1695968187    0.2365920521
H        0.9426929738   -3.1122192202   -0.2567240884
14   
Generated by ForceBalance from scan.xyz: Frame 17 of 24
C       -1.6488294349   -0.1190559613    0.0691026368
C        0.4429610648   -0.6909181561    0.0264486528
C        1.8139676058   -1.2981767730   -0.1223638732
C        0.2778717476    0.8320636429    0.2247688991
N        1.4524968885    2.1962259355   -1.6177117423
N       -1.1476462157    1.0682756772    0.1382254616
N       -0.7187846858   -1.2217851305    0.0077821775
N        0.9740275601    1.6011065279   -0.8140501456
N        1.8854216987   -2.6574486023   -0.3367413765
O        2.7069382778   -0.4748637174   -0.2957051289
H       -2.7175997179   -0.3135192323    0.0551251142
H        0.7092672469    1.1831540930    1.1719354929
H        2.4068769638   -3.1848649457    0.3644393844
H        0.9510517796   -3.0699459950   -0.3738834423
14   
Generated by ForceBalance from scan.xyz: Frame 18 of 24
C       -2.8200270328   -0.4092341275    0.3038540155
C       -0.6812296502   -0.5498552739   -0.0268347085
C        0.7717905413   -0.8726659442   -0.2321672646
C       -1.2015332621    0.8922581881   -0.2509966734
N       -0.6538110266    1.7673895309   -2.6116845815
N       -2.6360715713    0.8031132794   -0.1020552029
N       -1.6618688801   -1.2651463172    0.3718670768
N       -0.8700196623    1.4013037393   -1.5878488131
N        1.1817565153   -2.1498211767    0.1372951526
O        1.4561294081    0.0474564240   -0.6637272744
H       -3.7948008860   -0.8003081174    0.5816693793
H       -0.7458638264    1.6108302029    0.4432485879
H        1.4474525616   -2.2122895002    1.1230707543
H        2.0537482086   -2.3403958911   -0.3667695888
14   
Generated by ForceBalance from scan.xyz: Frame 19 of 24
C       -2.8072618495   -0.4159475632    0.3222455198
C       -0.6723872878   -0.5527743889   -0.0307762464
C        0.7789742885   -0.8655967162   -0.2560743913
C       -1.1966015918    0.8867231078   -0.2531387819
N       -0.6727432228    1.7588767504   -2.6203638199
N       -2.6293285651    0.7951589024   -0.0895002246
N       -1.6462279108   -1.2696176300    0.3811389511
N       -0.8764939471    1.3922127112   -1.5942346672
N        1.2023917989   -2.1309466661    0.0896456954
O        1.4541015225    0.0611227481   -0.6946543098
H       -3.7782957230   -0.8077470972    0.6118318809
H       -0.7349418354    1.6074453540    0.4348814475
H        1.2677476350   -2.3043915929    1.0935560500
H        2.1433099924   -2.2693415490   -0.2882161366
14   
Generated by ForceBalance from scan.xyz: Frame 20 of 24
C       -2.7910546450   -0.4137227655    0.3354308802
C       -0.6581183739   -0.5469710106   -0.0272588757
C        0.7926128890   -0.8512957502   -0.2646554779
C       -1.1857745775    0.8887023145   -0.2566308844
N       -0.6758432422    1.7491817410   -2.6310503060
N       -2.6175290081    0.7947560929   -0.0852281946
N       -1.6270622470   -1.2643933354    0.3945883602
N       -0.8711352521    1.3854938197   -1.6022567206
N        1.2269241694   -2.1042651860    0.0674559543
O        1.4572334936    0.0764774062   -0.7219649284
H       -3.7596754979   -0.8057592808    0.6326345379
H       -0.7222625534    1.6146693609    0.4246364062
H        1.1075376525   -2.3884855124    1.0386965403
H        2.2057943500   -2.2224270869   -0.1994992951
14   
Generated by ForceBalance from scan.xyz: Frame 21 of 24
C       -2.7793792541   -0.4228221228    0.3495584721
C       -0.6473700800   -0.5426594933   -0.0203870414
C        0.8037223145   -0.8341779590   -0.2694666547
C       -1.1849179563    0.8866839911   -0.2574431182
N       -0.6925093649    1.7373938999   -2.6388706424
N       -2.6154610003    0.7839550029   -0.0791844164
N       -1.6087039221   -1.2651842116    0.4096213792
N       -0.8777589447    1.3759743435   -1.6074439623
N        1.2517592610   -2.0728853074    0.0579607568
O        1.4519578264    0.0931712101   -0.7545242420
H       -3.7440138695   -0.8195202218    0.6534307971
H       -0.7235684935    1.6202405046    0.4172007973
H        0.9722230665   -2.4657548637    0.9537467034
H        2.2477669286   -2.1932702597   -0.1238455000
14   
Generated by ForceBalance from scan.xyz: Frame 22 of 24
C       -2.7691230259   -0.4319904160    0.3633793688
C       -0.6372928195   -0.5356805695   -0.0106287370
C        0.8153317488   -0.8140763293   -0.2656044193
C       -1.1869289506    0.8859339620   -0.2588115911
N       -0.7062285697    1.7225723771   -2.6474576400
N       -2.6162448120    0.7723634813   -0.0757168412
N       -1.5906814129   -1.2639112975    0.4271098535
N       -0.8856646057    1.3665167757   -1.6131563380
N        1.2756110252   -2.0366864309    0.0704734063
O        1.4467278273    0.1113653843   -0.7791710523
H       -3.7296696432   -0.8346064230    0.6723458744
H       -0.7302282178    1.6285230772    0.4091762038
H        0.8609179237   -2.5362514956    0.8517763752
H        2.2740792442   -2.1828098804   -0.0620384043
14   
Generated by ForceBalance from scan.xyz: Frame 23 of 24
C       -2.2754541202   -0.2877526622   -0.2077113389
C       -0.1281844180   -0.5502434305   -0.0892481935
C        1.3234347034   -0.9300582061   -0.0775586048
C       -0.5142228866    0.9438786583   -0.1002281241
N        0.5881697313    2.2375221466   -2.0359306285
N       -1.9482236736    0.9585566630   -0.2854020580
N       -1.2003278816   -1.2438981726   -0.0824394212
N        0.1440555528    1.6762533820   -1.1894488386
N        1.6141047608   -2.2321959748    0.0751435679
O        2.1128575071    0.0039332986   -0.2391001130
H       -3.3042830017   -0.6352581604   -0.2386583402
H       -0.1982953751    1.4611706128    0.8156850856
H        0.9214270647   -2.8875024662    0.4226785624
H        2.5934810356   -2.4987835203    0.1311763265
14   
Generated by ForceBalance from scan.xyz: Frame 24 of 24
C       -2.2725629087   -0.3005953541   -0.2064230628
C       -0.1256081409   -0.5528759062   -0.0698709965
C        1.3268217590   -0.9288849890   -0.0628493892
C       -0.5169139157    0.9394025776   -0.0934874145
N        0.5795452363    2.2273990276   -2.0361648105
N       -1.9505319226    0.9468874582   -0.2855995892
N       -1.1942689743   -1.2518591167   -0.0710582580
N        0.1412743996    1.6662172227   -1.1865649086
N        1.6218553464   -2.2176865235    0.1562914162
O        2.1102940837   -0.0016717813   -0.2849283388
H       -3.2997051073   -0.6525468175   -0.2424481947
H       -0.2076133724    1.4657736325    0.8195638736
H        0.8989249663   -2.9078894864    0.3306433312
H        2.5944795079   -2.5110722802    0.1498038650
