23   

C        5.7000039382    1.7602112043    0.0652227588
C        4.7727680694    2.0879640898   -0.9234349829
C        5.4856006204    0.6380481576    0.8651667508
C        3.6365486255    1.2927406435   -1.1114235844
C        4.3483118345   -0.1559178849    0.6749331835
C        3.3976863882    0.1482551491   -0.3220298855
C        1.3270256089   -0.6473561449   -1.5648455592
C        2.1983112263   -0.6870352723   -0.5130619146
C        0.1892132639   -1.5997405276   -1.3689845352
C        1.7411792988   -1.7138808513    0.5142638396
C        0.8295704285   -2.5754299202   -0.3729920263
H        6.5808483220    2.3748712807    0.2125599181
H        4.9310625118    2.9611689932   -1.5459937265
H        6.2016098612    0.3797359531    1.6370457329
H        2.9307852219    1.5781864534   -1.8808306345
H        4.2252210324   -1.0149433283    1.3201337589
H        1.4458911004   -0.0288865241   -2.4460908573
H       -0.1209080344   -2.0962875507   -2.2938260365
H       -0.6561098209   -1.0751766809   -0.9115324501
H        1.1673353971   -1.2168682375    1.3029589703
H        2.5466275973   -2.3177692438    0.9401962137
H        0.1018300440   -3.1675892187    0.1908368651
H        1.4692694052   -3.2584096765   -0.9424397306
23   

C        5.6766887050    1.7465984381    0.0665799522
C        4.6709808800    2.1522270887   -0.8120348816
C        5.5464499959    0.5399924771    0.7562733781
C        3.5390799002    1.3507647163   -0.9997260304
C        4.4132841077   -0.2600648471    0.5665035553
C        3.3879415249    0.1268787584   -0.3171525404
C        1.4071579272   -0.7590295182   -1.6285642966
C        2.1913202213   -0.7122278493   -0.5124870485
C        0.2402920207   -1.6766197732   -1.4355960653
C        1.6315449795   -1.6215807353    0.5725220574
C        0.7810503031   -2.5578781145   -0.2999661809
H        6.5544411177    2.3658299838    0.2132077327
H        4.7652631046    3.0897672755   -1.3479877316
H        6.3253040796    0.2204124866    1.4392220694
H        2.7649725852    1.6874531812   -1.6783269750
H        4.3485326962   -1.1933550358    1.1101167610
H        1.6157132902   -0.2263659577   -2.5489613196
H       -0.0032070339   -2.2577483063   -2.3306049918
H       -0.6296257203   -1.1015435825   -1.1016174842
H        1.0016022173   -1.0384021680    1.2517944958
H        2.3876804412   -2.1786474977    1.1316471170
H       -0.0007658440   -3.0847266405    0.2562322755
H        1.4530618533   -3.2993700826   -0.7454939123
23   

C        5.6713873458    1.7393839295    0.0768845766
C        4.6016246575    2.2067061054   -0.6903569938
C        5.6120875796    0.4647472211    0.6458426456
C        3.4763862531    1.3981967030   -0.8885834560
C        4.4852066490   -0.3415989160    0.4455146154
C        3.4032627972    0.1089207824   -0.3287415061
C        1.4996781403   -0.8735556350   -1.6799114063
C        2.2086362474   -0.7352390689   -0.5238182256
C        0.3045394180   -1.7528622484   -1.4790194568
C        1.5561086867   -1.5166423168    0.6072323220
C        0.7488555533   -2.5246001300   -0.2259552121
H        6.5438766280    2.3641033310    0.2314295853
H        4.6414001752    3.1965329944   -1.1305566611
H        6.4398137061    0.0987808253    1.2425590797
H        2.6478523965    1.7728015212   -1.4778268106
H        4.4580231518   -1.3292477239    0.8891618719
H        1.7819404738   -0.4277086646   -2.6267468643
H        0.1110436510   -2.4168450827   -2.3273691199
H       -0.5746450062   -1.1362652320   -1.2648267990
H        0.8933966074   -0.8566569339    1.1760435539
H        2.2678458259   -2.0142029588    1.2721776404
H       -0.0797730659   -2.9826095519    0.3233699367
H        1.4346827072   -3.3157508795   -0.5477948372
23   

C        5.6726519530    1.7300691365    0.0829607259
C        4.5442027657    2.2474947657   -0.5591749213
C        5.6769642566    0.4013058360    0.5167880230
C        3.4240556432    1.4345542003   -0.7686015091
C        4.5547444951   -0.4086393367    0.3051472216
C        3.4191384829    0.0935790363   -0.3472131755
C        1.5873640752   -0.9993638237   -1.7196673612
C        2.2247493325   -0.7562099141   -0.5408781989
C        0.3648663039   -1.8375405150   -1.5063028881
C        1.4884616942   -1.4034335867    0.6223556556
C        0.7137048784   -2.4807999850   -0.1533395506
H        6.5409872394    2.3582702115    0.2465130771
H        4.5346851150    3.2788822593   -0.8927437169
H        6.5489900431   -0.0025608878    1.0183629818
H        2.5478905826    1.8418761087   -1.2592788356
H        4.5644522492   -1.4373617562    0.6453918872
H        1.9361766020   -0.6503396916   -2.6848858400
H        0.2117981483   -2.5836159331   -2.2923857281
H       -0.5136748295   -1.1904455766   -1.4141517702
H        0.8067628145   -0.6779740776    1.0776167752
H        2.1545769278   -1.8352246554    1.3755143633
H       -0.1570134384   -2.8673581321    0.3857141119
H        1.4015716675   -3.3109237869   -0.3471253494
23   

C        5.6786810655    1.7211883597    0.0745162485
C        4.4947029164    2.2798189759   -0.4159896396
C        5.7375602493    0.3528944612    0.3556524350
C        3.3731114612    1.4688605389   -0.6258677611
C        4.6136024765   -0.4545407348    0.1436547716
C        3.4231676683    0.0917078029   -0.3552662704
C        1.6764440118   -1.1360912389   -1.7350642012
C        2.2263393877   -0.7610091579   -0.5477672208
C        0.4322625829   -1.9406555604   -1.5172723391
C        1.4050403639   -1.2720187919    0.6261761707
C        0.6766146243   -2.4280292427   -0.0784031438
H        6.5479968277    2.3478067603    0.2389210824
H        4.4436068587    3.3409774255   -0.6315075266
H        6.6526717055   -0.0832228102    0.7396933160
H        2.4539732213    1.9044743045   -0.9998461010
H        4.6608225362   -1.5140354720    0.3664950747
H        2.1005964290   -0.9014036598   -2.7047071173
H        0.3268324200   -2.7702286908   -2.2234208927
H       -0.4431103691   -1.2842848808   -1.5619864088
H        0.7003248596   -0.4992139306    0.9492061603
H        2.0164461243   -1.6168566237    1.4658750034
H       -0.2343422200   -2.7496901938    0.4362327803
H        1.3679406360   -3.2762239683   -0.1276870092
23   

C        5.6882158725    1.7088275072    0.0661812357
C        4.4587913403    2.3004169651   -0.2393962023
C        5.7850283981    0.3174739928    0.1655124077
C        3.3289180960    1.4996500358   -0.4439795983
C        4.6526506325   -0.4796638461   -0.0406413612
C        3.4149758020    0.1014554919   -0.3468766136
C        1.7771296548   -1.2719756558   -1.7288611583
C        2.2139742305   -0.7465139839   -0.5519983296
C        0.5176138211   -2.0564397526   -1.5272347676
C        1.2995216499   -1.1329829327    0.6001637133
C        0.6369837503   -2.3712018451   -0.0256486481
H        6.5640542056    2.3274097578    0.2263408399
H        4.3794686395    3.3787527394   -0.3169789739
H        6.7363351275   -0.1446850534    0.4032876104
H        2.3759573473    1.9590610955   -0.6789798582
H        4.7289410403   -1.5577902183    0.0387040745
H        2.2934122282   -1.1601435015   -2.6755129840
H        0.4725915086   -2.9632335376   -2.1384895906
H       -0.3497931274   -1.4173816730   -1.7230519863
H        0.5668831776   -0.3384855712    0.7737217678
H        1.8410236180   -1.3715092786    1.5209564812
H       -0.3146731488   -2.6417289302    0.4426717017
H        1.3312610434   -3.2113097673    0.0835371054
23   

C        5.6974964589    1.6997656254    0.0678969612
C        4.4409399668    2.3021643435   -0.0452180998
C        5.8121693278    0.3088708235   -0.0166977253
C        3.3015368006    1.5124576115   -0.2394701665
C        4.6702671945   -0.4774284210   -0.2115856792
C        3.4037715480    0.1132658971   -0.3173723764
C        1.8794541975   -1.3990619354   -1.6766119879
C        2.1991330858   -0.7226865353   -0.5393253872
C        0.6037192996   -2.1632797897   -1.5022776399
C        1.1828758464   -0.9847798282    0.5616839568
C        0.5829166179   -2.2967019079    0.0303520193
H        6.5809261386    2.3097708230    0.2190113182
H        4.3483041544    3.3804796982    0.0162051222
H        6.7851655171   -0.1614422086    0.0681262847
H        2.3288073604    1.9812219181   -0.3311432873
H        4.7618701594   -1.5551964382   -0.2786489314
H        2.4917021747   -1.4110395057   -2.5711525121
H        0.6128852537   -3.1364653388   -2.0030358309
H       -0.2394698021   -1.5585138406   -1.8521966915
H        0.4349062084   -0.1857349867    0.5724784326
H        1.6378414591   -1.1053823604    1.5498680074
H       -0.4080606484   -2.5208099703    0.4376513340
H        1.2647475403   -3.1095113007    0.3027058431
23   

C        5.6962326965    1.6879640458    0.0832882054
C        4.4270544682    2.2708860641    0.1408032031
C        5.8216203793    0.3187262306   -0.1691280846
C        3.2858875338    1.4831937795   -0.0508619532
C        4.6781502808   -0.4661202943   -0.3605630912
C        3.3980327187    0.1026655345   -0.2941189738
C        1.9617451684   -1.5216556714   -1.6081928849
C        2.1942385425   -0.7234049831   -0.5290747895
C        0.6626673900   -2.2520470991   -1.4648062424
C        1.0815261581   -0.8594184213    0.4997002853
C        0.5097504417   -2.2183640001    0.0652084126
H        6.5810676955    2.2967261591    0.2311653039
H        4.3258543207    3.3332849071    0.3310320884
H        6.8044846991   -0.1359098334   -0.2180366335
H        2.3041400169    1.9403614837   -0.0135774335
H        4.7809035898   -1.5265815454   -0.5585634513
H        2.6491010073   -1.6413064642   -2.4378491104
H        0.6978060602   -3.2738382965   -1.8555083162
H       -0.1370184809   -1.6820017710   -1.9492727074
H        0.3466364335   -0.0607923921    0.3576155729
H        1.4467034343   -0.8728041235    1.5314704361
H       -0.5155409729   -2.3910038357    0.4074305999
H        1.1539649888   -3.0002300403    0.4816897856
23   

C        5.6998642390    1.6832697963    0.0959290321
C        4.4271317954    2.2239246677    0.2976502472
C        5.8330821758    0.3509418111   -0.3044703106
C        3.2903226880    1.4312886120    0.1007393514
C        4.6942988483   -0.4394510052   -0.5007597752
C        3.4092259711    0.0860422064   -0.2939578817
C        2.0303974187   -1.6369331395   -1.5399148132
C        2.2093248496   -0.7377691223   -0.5305899238
C        0.7053149922   -2.3237809572   -1.4210441637
C        1.0170345369   -0.7455788117    0.4153739512
C        0.4445513719   -2.1319632413    0.0817969843
H        6.5811635798    2.2962714127    0.2473674839
H        4.3194025379    3.2582448949    0.6037537302
H        6.8187543111   -0.0711046603   -0.4639619879
H        2.3071776571    1.8613278541    0.2506040224
H        4.8084566199   -1.4714030861   -0.8105025248
H        2.7672512223   -1.8535606259   -2.3047152268
H        0.7411892081   -3.3804751347   -1.7039883752
H       -0.0422487378   -1.7905816381   -2.0177143889
H        0.3153245868    0.0458340263    0.1335466676
H        1.3009069834   -0.6568043398    1.4687825514
H       -0.6065256288   -2.2507049699    0.3633472875
H        1.0382027271   -2.8776959008    0.6216006273
23   

C        5.6957665409    1.6864314298    0.1002355904
C        4.4269911617    2.1640931573    0.4370853141
C        5.8339137505    0.4048955607   -0.4384822614
C        3.2988524127    1.3603006975    0.2353977367
C        4.7042806682   -0.3972691885   -0.6394915753
C        3.4209505649    0.0658961469   -0.3031922162
C        2.0803932194   -1.7493920855   -1.4652918394
C        2.2279696074   -0.7665864348   -0.5296377703
C        0.7308218830   -2.3906641075   -1.3693313571
C        0.9755226386   -0.6562886704    0.3280681760
C        0.3826399538   -2.0529660415    0.0884759717
H        6.5700282339    2.3085061876    0.2554380731
H        4.3151401652    3.1590580075    0.8526180215
H        6.8168949656    0.0306149691   -0.7007430683
H        2.3217757541    1.7500388126    0.4939964595
H        4.8304774275   -1.3902621794   -1.0529903397
H        2.8474259550   -2.0512713342   -2.1686096821
H        0.7531218274   -3.4698140721   -1.5507231182
H        0.0378651514   -1.8984515915   -2.0597647245
H        0.3183757225    0.1215126110   -0.0738068596
H        1.1898980938   -0.4765285619    1.3863272485
H       -0.6871875471   -2.1185326025    0.3105137886
H        0.9182954472   -2.7589581024    0.7323840002
23   

C        5.6947102505    1.6944869726    0.0996287376
C        4.4420016455    2.0987751564    0.5654490659
C        5.8244024412    0.4753480780   -0.5686759197
C        3.3210436618    1.2850893368    0.3627961628
C        4.7026071199   -0.3373340179   -0.7707952375
C        3.4325919138    0.0533148632   -0.3090337852
C        2.1246086217   -1.8513145790   -1.3733479820
C        2.2461631201   -0.7920407375   -0.5187855407
C        0.7528735996   -2.4478936131   -1.3107627588
C        0.9427880510   -0.5740788432    0.2370283480
C        0.3210448500   -1.9698221652    0.0825945878
H        6.5629337782    2.3246647098    0.2560638712
H        4.3365644836    3.0453532670    1.0831656750
H        6.7954047095    0.1569146990   -0.9304494696
H        2.3615435039    1.6294491128    0.7277218253
H        4.8315035985   -1.2808309916   -1.2853494189
H        2.9166706584   -2.2348103628   -2.0047712441
H        0.7540089683   -3.5393806376   -1.3922889009
H        0.1215463186   -2.0044921999   -2.0879109257
H        0.3394361616    0.1824514500   -0.2749114191
H        1.0873835459   -0.3116175931    1.2897345977
H       -0.7626259407   -1.9862946447    0.2359538480
H        0.7898097896   -2.6283934731    0.8218838962
23   

C        5.6966325510    1.7040461452    0.0909190896
C        4.4764698585    2.0273538486    0.6868258455
C        5.7967986626    0.5600860864   -0.7024797741
C        3.3582652788    1.2080694924    0.4905651557
C        4.6784587265   -0.2586392780   -0.8984138806
C        3.4395211056    0.0501590050   -0.3058373391
C        2.1688977976   -1.9405405381   -1.2601453917
C        2.2580617444   -0.8081433185   -0.4991277687
C        0.7812407377   -2.5016044866   -1.2473932502
C        0.9101780687   -0.4979625792    0.1382523226
C        0.2601897593   -1.8871802656    0.0578785219
H        6.5621828096    2.3389147614    0.2431763826
H        4.3939037299    2.9159592846    1.3022530537
H        6.7422754812    0.3049228024   -1.1673399659
H        2.4306475903    1.4995917232    0.9649255216
H        4.7885357687   -1.1392110831   -1.5174059692
H        2.9906268310   -2.3993086359   -1.7956771618
H        0.7592966719   -3.5957574889   -1.2278009791
H        0.2213518451   -2.1206792405   -2.1079129179
H        0.3672643102    0.2268512341   -0.4768344478
H        0.9769297640   -0.1591161081    1.1762647418
H       -0.8319634559   -1.8650190009    0.1275646997
H        0.6515389305   -2.4866162935    0.8870629215
23   

C        5.7164752785    1.7159928814    0.0826735802
C        4.5492211998    1.9500214320    0.8117170311
C        5.7607641426    0.6626705316   -0.8320885678
C        3.4279244986    1.1318844830    0.6278450680
C        4.6395812854   -0.1549100122   -1.0154469130
C        3.4543747442    0.0641956737   -0.2890751920
C        2.2240235691   -1.9976766845   -1.1291211044
C        2.2742189628   -0.7995502354   -0.4736592417
C        0.8304801329   -2.5419233206   -1.1694242583
C        0.8901452267   -0.4153842120    0.0318861634
C        0.2218101265   -1.7987879725    0.0266857863
H        6.5842537710    2.3499113486    0.2259455350
H        4.5108436690    2.7672189318    1.5229924783
H        6.6641599403    0.4782352727   -1.4021608772
H        2.5469704974    1.3496164533    1.2156750489
H        4.6994109088   -0.9602104074   -1.7361271990
H        3.0796865823   -2.5121322489   -1.5490578863
H        0.7888463479   -3.6287491983   -1.0463333838
H        0.3440995387   -2.2412928817   -2.1032530922
H        0.4087107596    0.2570174055   -0.6853690926
H        0.8763091650    0.0131645279    1.0372498587
H       -0.8718249732   -1.7570933837    0.0070815702
H        0.5349166090   -2.3223570642    0.9365122382
23   

C        5.7118975694    1.7121992492    0.0766810505
C        4.6054937641    1.8531697063    0.9172293041
C        5.6921554045    0.7545580501   -0.9395783669
C        3.4807989648    1.0381480536    0.7413303565
C        4.5669263474   -0.0595837779   -1.1139883174
C        3.4431219064    0.0702795317   -0.2797042664
C        2.2558960217   -2.0535591231   -0.9952804033
C        2.2651530760   -0.7983991961   -0.4587912149
C        0.8650233219   -2.6009493534   -1.0760825831
C        0.8517030630   -0.3605040485   -0.1013692837
C        0.1783751440   -1.7384701134   -0.0069849162
H        6.5830189941    2.3429596201    0.2134238053
H        4.6184487979    2.5928710528    1.7095940917
H        6.5484436201    0.6420619535   -1.5947341050
H        2.6448113058    1.1632980864    1.4166938650
H        4.5669122294   -0.7921815855   -1.9117030898
H        3.1419069420   -2.6003272188   -1.2958674995
H        0.8086455476   -3.6693710968   -0.8451192216
H        0.4462687904   -2.3988291633   -2.0674432770
H        0.4301375985    0.2264813415   -0.9236016805
H        0.7707173013    0.1855117728    0.8419770177
H       -0.9110120627   -1.7013394368   -0.1070757992
H        0.4251527921   -2.1631944718    0.9720986710
23   

C        5.7102573270    1.7097853831    0.0786288411
C        4.6683543522    1.7506771371    1.0088846896
C        5.6256652573    0.8521298138   -1.0213793666
C        3.5426793145    0.9364979462    0.8367961046
C        4.4989253690    0.0387577528   -1.1909844074
C        3.4396109017    0.0748100277   -0.2706976421
C        2.2809289267   -2.1018315698   -0.8545086931
C        2.2654581360   -0.8032193318   -0.4396165551
C        0.8917700165   -2.6474736144   -0.9747091071
C        0.8376129369   -0.3191486278   -0.2340058953
C        0.1431671183   -1.6772055433   -0.0466898282
H        6.5827102835    2.3395332467    0.2114447794
H        4.7329037534    2.4104372684    1.8666074263
H        6.4329892595    0.8159742739   -1.7438964067
H        2.7488589230    0.9691193078    1.5728864241
H        4.4422655961   -0.6220425271   -2.0477995835
H        3.1830127419   -2.6725606163   -1.0427757306
H        0.8071917186   -3.6868331224   -0.6421491484
H        0.5435358700   -2.5445857667   -2.0077516134
H        0.4843390315    0.1810870346   -1.1413525645
H        0.7095818140    0.3287860599    0.6378475809
H       -0.9363402909   -1.6452602736   -0.2250134959
H        0.3177813955   -2.0013019376    0.9849793987
23   

C        5.7080474244    1.7093106314    0.0828040365
C        4.7419107549    1.6383707200    1.0905448188
C        5.5476850586    0.9624674945   -1.0880246021
C        3.6157112069    0.8238209809    0.9242837420
C        4.4202852122    0.1484860590   -1.2510662633
C        3.4370423665    0.0768424907   -0.2538317657
C        2.2890256041   -2.1396113666   -0.7003019688
C        2.2632693699   -0.8078743272   -0.4153209700
C        0.9027048415   -2.6802911127   -0.8684984145
C        0.8345858116   -0.2877179694   -0.3678701500
C        0.1042844927   -1.6134470626   -0.1003264612
H        6.5809829122    2.3394871831    0.2102949772
H        4.8656468573    2.2114952966    2.0023231294
H        6.2969202590    1.0122182270   -1.8698690013
H        2.8743660884    0.7647151622    1.7123545680
H        4.3019284697   -0.4307722285   -2.1592567803
H        3.1949557628   -2.7309215331   -0.7695476603
H        0.7757433121   -3.6799749970   -0.4412949288
H        0.6330300640   -2.6786244620   -1.9297811107
H        0.5589167720    0.1246730484   -1.3436824252
H        0.6635198267    0.4461258394    0.4256497724
H       -0.9583380024   -1.5884588394   -0.3617874092
H        0.1961434025   -1.8344727052    0.9685710503
23   

C        5.7069290633    1.7081679639    0.0888760806
C        4.8291863332    1.5055781783    1.1580362243
C        5.4612525499    1.0878991683   -1.1398788781
C        3.7061961241    0.6858448357    0.9954004053
C        4.3372213137    0.2683407464   -1.2984547223
C        3.4445102499    0.0644123029   -0.2375125344
C        2.2777259685   -2.1741669860   -0.5293905386
C        2.2654146535   -0.8187333144   -0.4041561714
C        0.8937090194   -2.7039255437   -0.7451381581
C        0.8530743617   -0.2675306500   -0.5254935841
C        0.0687383120   -1.5404393733   -0.1680213011
H        6.5769802105    2.3430029090    0.2129139122
H        5.0182861768    1.9815799610    2.1134334206
H        6.1412377630    1.2405668793   -1.9701940682
H        3.0293937388    0.5258010937    1.8264956924
H        4.1504407751   -0.2133263377   -2.2511162860
H        3.1703036290   -2.7850116494   -0.4560370647
H        0.7062655486   -3.6454592759   -0.2194577882
H        0.7064482644   -2.8187647393   -1.8179080111
H        0.6621124415    0.0370325275   -1.5594068430
H        0.6478902259    0.5549316226    0.1668147369
H       -0.9699586950   -1.5259085546   -0.5130640397
H        0.0730875425   -1.6388113899    0.9229015407
23   

C        5.7076551441    1.7143761114    0.0998450052
C        4.9332282547    1.3507958731    1.2056500315
C        5.3667726367    1.2452106258   -1.1724370731
C        3.8195270993    0.5196815908    1.0366584415
C        4.2524012505    0.4136893536   -1.3367531814
C        3.4681396699    0.0426152271   -0.2364538470
C        2.2543581813   -2.1909835808   -0.3551128082
C        2.2821843361   -0.8317888254   -0.4169077549
C        0.8711597961   -2.7076317212   -0.6045376070
C        0.9008259448   -0.2623437947   -0.7007623089
C        0.0502639247   -1.4577798461   -0.2411737776
H        6.5699811459    2.3587578603    0.2285087456
H        5.1939935189    1.7125109806    2.1937189449
H        5.9644417381    1.5255281377   -2.0322790813
H        3.2189089301    0.2392799671    1.8940301093
H        3.9891363459    0.0520730028   -2.3238506201
H        3.1147822260   -2.8085090627   -0.1237218786
H        0.6138935313   -3.5685485597    0.0204252550
H        0.7556197607   -2.9542837913   -1.6651668830
H        0.7866320295   -0.0864629574   -1.7750667241
H        0.6825121707    0.6468423887   -0.1318154436
H       -0.9614895913   -1.4609764878   -0.6589077697
H       -0.0228622631   -1.4141754251    0.8508320696
23   

C        5.6952040825    1.7204546156    0.1125924772
C        5.0283490227    1.1930278792    1.2223411521
C        5.2568758219    1.4042073055   -1.1768126715
C        3.9263489223    0.3491941337    1.0401660595
C        4.1545989976    0.5593482872   -1.3541526810
C        3.4830149147    0.0170012399   -0.2500041438
C        2.2156160567   -2.1860269964   -0.1936367264
C        2.2960650298   -0.8501953583   -0.4424731742
C        0.8358371754   -2.6976550344   -0.4700877740
C        0.9529046346   -0.2895329777   -0.8851059800
C        0.0360891166   -1.3908395907   -0.3282699697
H        6.5481154612    2.3751553413    0.2515282514
H        5.3622247407    1.4391089629    2.2238828263
H        5.7687822305    1.8145040381   -2.0397867196
H        3.4059325409   -0.0532428435    1.9013626968
H        3.8141894979    0.3198663342   -2.3547199015
H        3.0328489383   -2.7845860399    0.1924129364
H        0.5096484293   -3.4625900796    0.2415369080
H        0.7818587247   -3.0781357554   -1.4955009351
H        0.9082700227   -0.2555166176   -1.9782181650
H        0.7318447751    0.6927076970   -0.4556837445
H       -0.9475808484   -1.4244528981   -0.8072416091
H       -0.1023858601   -1.2001112243    0.7414031684
23   

C        5.6866610426    1.7274125780    0.1228401388
C        5.1242538878    1.0570958301    1.2129133664
C        5.1474465112    1.5513404677   -1.1548352998
C        4.0265358129    0.2095543460    1.0225660558
C        4.0498157483    0.7024180140   -1.3411669631
C        3.4840031792    0.0134044768   -0.2588623392
C        2.1737955660   -2.1484942683   -0.0572688532
C        2.3008388837   -0.8513616009   -0.4529803963
C        0.8051895254   -2.6710302748   -0.3663795342
C        0.9990084558   -0.3301332469   -1.0435278310
C        0.0254192500   -1.3465281410   -0.4257404572
H        6.5362749501    2.3849379769    0.2684772378
H        5.5353864782    1.1958196448    2.2063114134
H        5.5775853815    2.0736476833   -2.0017660059
H        3.5867035999   -0.3003299566    1.8716160154
H        3.6327349538    0.5734244406   -2.3329511008
H        2.9484377833   -2.7092204087    0.4532262369
H        0.4179764470   -3.3457923738    0.4034992033
H        0.8102508089   -3.1647594766   -1.3437966744
H        1.0237989010   -0.4230812842   -2.1338473815
H        0.7707577008    0.6981537297   -0.7457978476
H       -0.9263700216   -1.4215213791   -0.9611019320
H       -0.1762494329   -1.0322731273    0.6040028388
23   

C        5.6791240851    1.7308084223    0.1299979156
C        5.2140490049    0.9462453127    1.1886838585
C        5.0406800502    1.6704297909   -1.1116520058
C        4.1142715815    0.1004074410    1.0029612280
C        3.9412293978    0.8231543395   -1.2942997188
C        3.4691876097    0.0196370864   -0.2447253227
C        2.1207455155   -2.1023965337    0.0732743160
C        2.2924859941   -0.8486042713   -0.4338548388
C        0.7717342668   -2.6464407409   -0.2815845768
C        1.0423499095   -0.3878491906   -1.1694172031
C        0.0143095819   -1.3308727629   -0.5251179164
H        6.5305298919    2.3867298827    0.2723722128
H        5.7025732554    0.9947588473    2.1551749806
H        5.3959732187    2.2807011922   -1.9341211165
H        3.7533687584   -0.4957215031    1.8325859512
H        3.4525116017    0.7852774798   -2.2605724051
H        2.8495122859   -2.6196726682    0.6865730386
H        0.3227264949   -3.2408439328    0.5203101291
H        0.8405763442   -3.2332558182   -1.2035699166
H        1.1451838920   -0.5933742369   -2.2396242600
H        0.8031050722    0.6662390195   -0.9967270676
H       -0.8983872353   -1.4532100967   -1.1168518402
H       -0.2548405038   -0.9148144798    0.4518071819
23   

C        5.7053891024    1.7361097034    0.0561662906
C        5.0121521812    1.7604498496   -1.1560066182
C        5.2388710474    0.9408607598    1.1052956398
C        3.8531983778    0.9920259600   -1.3164087780
C        4.0793388584    0.1735472822    0.9425378734
C        3.3636531262    0.1897129285   -0.2672796349
C        1.1060796285   -0.3840158619   -1.2742335035
C        2.1527460967   -0.6308468774   -0.4338707671
C        0.0716524689   -1.4625528050   -1.1820705818
C        1.9406126267   -1.9410672215    0.3108802689
C        0.9369049005   -2.6106624891   -0.6399227854
H        6.6031904253    2.3307468926    0.1816854607
H        5.3730965341    2.3727356293   -1.9745063416
H        5.7748365098    0.9177993304    2.0472838833
H        3.3341622469    1.0143162352   -2.2667160094
H        3.7316741234   -0.4342153662    1.7690960036
H        1.0415513155    0.4641908093   -1.9454585654
H       -0.3830471655   -1.7065189708   -2.1473152348
H       -0.6965280992   -1.1767849806   -0.4558556472
H        1.4836555518   -1.7435146261    1.2858073692
H        2.8569183321   -2.5294582691    0.4220965487
H        0.3580002914   -3.4128204581   -0.1713701233
H        1.5006438165   -3.0300591297   -1.4803289359
23   

C        5.7041758772    1.7435235631    0.0606056469
C        4.9430440827    1.8737049431   -1.1018906202
C        5.3132039708    0.8334917000    1.0438346483
C        3.7936892227    1.0947467247   -1.2794182368
C        4.1632556321    0.0556861044    0.8643858117
C        3.3793782981    0.1687438242   -0.3003233518
C        1.1697806899   -0.4687914340   -1.3866713327
C        2.1709597129   -0.6530664534   -0.4754842674
C        0.1026816329   -1.5088867664   -1.2416236838
C        1.8821376580   -1.8757538466    0.3841812108
C        0.9060430412   -2.6149164255   -0.5429369499
H        6.5945049545    2.3463963416    0.1993764703
H        5.2429775989    2.5781405090   -1.8693077717
H        5.8999775003    0.7298259334    1.9494337116
H        3.2258675019    1.2109177017   -2.1936032907
H        3.8822738200   -0.6349086751    1.6496144848
H        1.1487773242    0.3117067217   -2.1373735287
H       -0.3097898845   -1.8390400690   -2.2001919713
H       -0.6926398404   -1.1334927014   -0.5891759547
H        1.3862580040   -1.5687362681    1.3106195752
H        2.7703796881   -2.4785408651    0.5978612720
H        0.2820790742   -3.3504930768   -0.0255090384
H        1.4969758996   -3.1318751620   -1.3068406088
23   

C        5.6942940815    1.7499713513    0.0641458019
C        4.8542906108    1.9846063201   -1.0241078444
C        5.3886118315    0.7274360404    0.9619915511
C        3.7135819957    1.1960431672   -1.2138379133
C        4.2471289870   -0.0599003687    0.7702995163
C        3.3840991549    0.1506362763   -0.3256557798
C        1.2336871244   -0.5614678649   -1.4899334627
C        2.1803592564   -0.6780998488   -0.5108310367
C        0.1310736910   -1.5570690883   -1.3065559764
C        1.8152727150   -1.8086268234    0.4413892663
C        0.8611418492   -2.6071632289   -0.4592346185
H        6.5781477160    2.3600061644    0.2126661934
H        5.0848190090    2.7796088053   -1.7240736396
H        6.0354461480    0.5430832196    1.8121711535
H        3.0827378857    1.4058819465   -2.0675624473
H        4.0439014386   -0.8353317478    1.4970274635
H        1.2700727824    0.1423776471   -2.3120552016
H       -0.2374117676   -1.9702473784   -2.2507705531
H       -0.6876968026   -1.1005331362   -0.7406489134
H        1.2888401330   -1.4043418004    1.3119321920
H        2.6674689568   -2.4219047424    0.7488387728
H        0.1882577886   -3.2700946360    0.0938464755
H        1.4719903198   -3.2143113608   -1.1361078854
