17   

C        5.9158522662    0.1245282760   -0.8427788907
C        4.6764425716   -0.6282312984   -1.0436197808
C        5.9741691837    1.0500040102    0.1689336262
C        3.5816452153   -0.4470019345   -0.2372720023
C        4.8146097437    1.2603968967    1.0111322186
C        2.2659951024   -1.1421536125   -0.4086026817
C        2.1075640942   -2.3280681934   -1.3497815901
N        3.6763781666    0.5186264069    0.7948166671
O        4.8242468524    2.0843585626    1.9084039942
O        1.2844112229   -0.7092932295    0.1842437942
H        6.7741296134   -0.0417736701   -1.4858065022
H        4.6406098560   -1.3400597731   -1.8607796612
H        6.8598148366    1.6392556990    0.3624010439
H        2.8164859739   -3.1141602810   -1.0769360554
H        2.2903090596   -2.0123280225   -2.3800298266
H        1.0919045047   -2.7272818640   -1.2764388265
H        2.8787428507    0.7381223381    1.3833160516
17   

C        5.9079750551    0.1528472835   -0.8595976673
C        4.6589055294   -0.5745044709   -1.0908287193
C        5.9890281761    1.0089930784    0.2099273384
C        3.5834660551   -0.4497416214   -0.2487894074
C        4.8432088363    1.1730562108    1.0809031619
C        2.2471792405   -1.0928431639   -0.4736933631
C        2.1024891264   -2.3407506908   -1.3332263761
N        3.6987497820    0.4483601060    0.8404147023
O        4.8687089149    1.9445858044    2.0233320787
O        1.2419971995   -0.5386245452   -0.0465966649
H        6.7539933664    0.0251100031   -1.5272149259
H        4.5971817121   -1.2172848695   -1.9618584540
H        6.8814250075    1.5797435799    0.4264520014
H        2.7448745388   -3.1339394347   -0.9417035364
H        2.3837984658   -2.1193556348   -2.3656369278
H        1.0646351477   -2.6854744773   -1.3153575534
H        2.9024998762    0.6663332987    1.4308902500
17   

C        5.8956782541    0.2012270196   -0.9323443435
C        4.6328663803   -0.5018082196   -1.1635495827
C        6.0321063900    0.9650104941    0.1996939254
C        3.6045282893   -0.4538555016   -0.2576512753
C        4.9292394927    1.0586960138    1.1343368971
C        2.2465296070   -1.0559567065   -0.4933323175
C        2.0801115190   -2.3589262451   -1.2641474635
N        3.7723260431    0.3541464106    0.8932942230
O        5.0007266281    1.7538721847    2.1321688677
O        1.2512824461   -0.4054407909   -0.2061265544
H        6.7073699283    0.1300837889   -1.6491919404
H        4.5223783795   -1.0566349750   -2.0881613442
H        6.9362969261    1.5157858759    0.4190001861
H        2.4656267849   -3.1878942171   -0.6647333777
H        2.6183447537   -2.3175143739   -2.2132850666
H        1.0206097095   -2.5352063486   -1.4706675785
H        3.0021158835    0.5467493156    1.5249726331
17   

C        5.8836034230    0.2582805972   -0.9781704907
C        4.6132479791   -0.4209492860   -1.2363174634
C        6.0403618195    0.9450783651    0.1999143226
C        3.6013425379   -0.4282471819   -0.3126142550
C        4.9507370487    0.9836465734    1.1544716706
C        2.2352875803   -1.0068648768   -0.5900788114
C        2.0829501216   -2.3860452830   -1.2177973825
N        3.7851213325    0.3038143433    0.8852642197
O        5.0406388296    1.6093919973    2.1957996441
O        1.2549137168   -0.2830536710   -0.5134046149
H        6.6840312451    0.2309568546   -1.7105196486
H        4.4775937030   -0.9081819989   -2.1955160633
H        6.9508722193    1.4757235810    0.4415719581
H        2.1350076124   -3.1464222970   -0.4341387333
H        2.8756321435   -2.5722830962   -1.9453123401
H        1.1154878150   -2.4614288639   -1.7220226749
H        3.0271730802    0.4674799335    1.5387374975
17   

C        5.8667969361    0.3797729902   -1.0421649755
C        4.5899982013   -0.2778304771   -1.3226331220
C        6.0452671443    0.9858778771    0.1765723383
C        3.5912782317   -0.3358162693   -0.3893739771
C        4.9707025719    0.9642527819    1.1489294595
C        2.2241240464   -0.9227172934   -0.6800819235
C        2.0872037215   -2.3889232344   -1.0620090640
N        3.7946242576    0.3145599636    0.8516391576
O        5.0829286126    1.5082998295    2.2330639737
O        1.2725267753   -0.1776292616   -0.8361910436
H        6.6554693131    0.3967843777   -1.7874550037
H        4.4330529093   -0.7154127206   -2.3028984528
H        6.9627040141    1.4942701082    0.4390055809
H        2.0415828338   -2.9963404440   -0.1543146839
H        2.9447248403   -2.7071607340   -1.6597107820
H        1.1718268523   -2.5416870552   -1.6403718576
H        3.0559959286    0.4288905534    1.5362810675
17   

C        5.8226428712    0.5267115374   -1.1289761627
C        4.5511075813   -0.1149899769   -1.4645072484
C        6.0047945668    1.0086885999    0.1435068329
C        3.5478537131   -0.2468975202   -0.5457813942
C        4.9392062530    0.8744919470    1.1166456663
C        2.2190782802   -0.9123643688   -0.8553202577
C        2.0182822046   -2.3859399005   -0.5403754508
N        3.7625091901    0.2562214093    0.7605474809
O        5.0612223363    1.2864779115    2.2564311024
O        1.2871430145   -0.2533364983   -1.2786800561
H        6.6064900615    0.6226366600   -1.8733913640
H        4.4000439226   -0.4877259541   -2.4723874508
H        6.9207760294    1.4943017215    0.4504441021
H        2.4318520741   -2.6153827700    0.4450742754
H        2.5294510627   -2.9925679780   -1.2923404581
H        0.9520812611   -2.6290731917   -0.5467979715
H        3.0419987883    0.2703948509    1.4728282063
17   

C        5.7974495266    0.6506534640   -1.1635236834
C        4.5367766902    0.0094347126   -1.5381775611
C        5.9881615532    1.0202717532    0.1447212336
C        3.5413465505   -0.2103252775   -0.6269185319
C        4.9418621912    0.7708726227    1.1158287817
C        2.2620803939   -0.9397178983   -0.9788140454
C        1.9375307467   -2.2635542109   -0.3017628041
N        3.7713754170    0.1649585207    0.7202589494
O        5.0751623706    1.0697940282    2.2890587800
O        1.3949635532   -0.3917246713   -1.6356852497
H        6.5680662011    0.8293675258   -1.9064987105
H        4.3862070026   -0.2948658259   -2.5691214332
H        6.8983878367    1.4962880365    0.4823019639
H        2.2958915268   -2.2635282559    0.7304433559
H        2.4260719374   -3.0759417398   -0.8462052042
H        0.8569954600   -2.4316508040   -0.3049182032
H        3.0720994897    0.0818993045    1.4484003316
17   

C        5.7613830536    0.7972011232   -1.1484608774
C        4.5144051611    0.1466355658   -1.5509756486
C        5.9762177933    1.0477510056    0.1842006997
C        3.5492855179   -0.1866642816   -0.6395001967
C        4.9682114169    0.6668828434    1.1535466760
C        2.3169975310   -0.9543562677   -1.0464371933
C        1.8921498657   -2.1857220613   -0.2586407076
N        3.8063318022    0.0616330178    0.7321994294
O        5.1269897727    0.8520113724    2.3468900653
O        1.5514733184   -0.5003881308   -1.8801609597
H        6.5041411414    1.0728330199   -1.8901847791
H        4.3485771580   -0.0744704273   -2.6009235636
H        6.8793010578    1.5221377708    0.5426206875
H        1.7519998109   -1.9334813525    0.7949294102
H        2.6625644859   -2.9566272737   -0.3452717831
H        0.9531590980   -2.5790271513   -0.6585405567
H        3.1428669080   -0.1355636226    1.4713375456
17   

C        5.7522476017    0.8922200825   -1.1352174829
C        4.5300369650    0.2111095919   -1.5620081477
C        5.9808302783    1.0607392356    0.2081125170
C        3.5998078717   -0.2308578743   -0.6592301219
C        5.0117710812    0.5645734096    1.1651440434
C        2.4004493313   -1.0193468075   -1.1057766625
C        1.8642704468   -2.1568008869   -0.2480515430
N        3.8709499195   -0.0650621166    0.7223851781
O        5.1850463399    0.6740861873    2.3657774485
O        1.7582558882   -0.6634972888   -2.0813397249
H        6.4662883317    1.2538389604   -1.8681557846
H        4.3548387141    0.0546250222   -2.6222558311
H        6.8673415693    1.5527959889    0.5836626364
H        1.4180354362   -1.7586067008    0.6663721742
H        2.6791880839   -2.8382951302    0.0108464627
H        1.1040901015   -2.7136349848   -0.8034277052
H        3.2407358436   -0.3591060795    1.4583053351
17   

C        5.7388560303    0.9568466334   -1.1176601002
C        4.5306667650    0.2565790621   -1.5532354355
C        6.0049257729    1.0442323395    0.2264704110
C        3.6525239341   -0.2904090779   -0.6549309504
C        5.0887176573    0.4446142308    1.1761549723
C        2.4539807443   -1.0677588776   -1.1180386673
C        1.8004895711   -2.1018813657   -0.2114673861
N        3.9606928127   -0.2028178521    0.7264079699
O        5.2935459008    0.4857851140    2.3761104737
O        1.9254363648   -0.7978429940   -2.1860423422
H        6.4128737347    1.3969563734   -1.8455471176
H        4.3259654735    0.1719676832   -2.6165006365
H        6.8827921055    1.5473616250    0.6076000684
H        1.3527105901   -1.6100026737    0.6555309724
H        2.5492246898   -2.8247345369    0.1236511082
H        1.0189232933   -2.6351340489   -0.7603351605
H        3.3723965430   -0.5784555972    1.4597906942
17   

C        5.7067599967    1.0081262313   -1.1239322064
C        4.5285726370    0.2636271177   -1.5683312255
C        5.9966856557    1.0499368752    0.2173454711
C        3.7054487251   -0.3787117590   -0.6805186374
C        5.1342509282    0.3600154196    1.1556994756
C        2.5197847827   -1.1718559100   -1.1493680730
C        1.7700955673   -2.0938159004   -0.1968884103
N        4.0334602354   -0.3276579623    0.6983746321
O        5.3584628087    0.3637704300    2.3528854968
O        2.1089247694   -1.0374983989   -2.2928067971
H        6.3400597671    1.5167449499   -1.8436945248
H        4.3054331187    0.2233272463   -2.6305161693
H        6.8541357805    1.5830152024    0.6041914392
H        1.3201843407   -1.5103911307    0.6103966548
H        2.4586287007   -2.8319892834    0.2228902301
H        0.9775425332   -2.6198803362   -0.7369227410
H        3.4866302638   -0.7728693854    1.4248333284
17   

C        5.6717645300    1.0639869234   -1.1340210207
C        4.5259456542    0.2763829557   -1.5887287339
C        5.9832864746    1.0694227991    0.2030782805
C        3.7611081864   -0.4517666124   -0.7150190569
C        5.1749325219    0.2996604974    1.1273709206
C        2.5868448279   -1.2571693550   -1.1917704492
C        1.7421276242   -2.0633440300   -0.2139985520
N        4.1046673988   -0.4287646832    0.6608391324
O        5.4152189314    0.2758501150    2.3212041295
O        2.2979993940   -1.2712463204   -2.3796747577
H        6.2640297155    1.6334474642   -1.8430737647
H        4.2820115654    0.2740339218   -2.6470954179
H        6.8181032971    1.6324858245    0.5968810374
H        1.2978104186   -1.3974646347    0.5303580411
H        2.3637066327   -2.8108474829    0.2857630430
H        0.9393080989   -2.5756266553   -0.7521275140
H        3.5985469713   -0.9344671533    1.3771265982
17   

C        5.6032443785    1.1133729647   -1.1463753033
C        4.4926711631    0.2748161843   -1.5973546048
C        5.9437650599    1.1025970186    0.1836733857
C        3.7972412227   -0.5256767852   -0.7290774165
C        5.1999616320    0.2661122895    1.1043626585
C        2.6353004122   -1.3529533395   -1.1978756225
C        1.7039716619   -2.0278594437   -0.1997276627
N        4.1628096715   -0.5106994972    0.6410700336
O        5.4626599710    0.2322497977    2.2932230332
O        2.4609359928   -1.5396935368   -2.3933267147
H        6.1464568821    1.7334590132   -1.8522292804
H        4.2182233300    0.2912814375   -2.6481041954
H        6.7541447620    1.7020643710    0.5747772783
H        1.2736646953   -1.2789697200    0.4704891880
H        2.2562878151   -2.7688178223    0.3837492746
H        0.8915927727   -2.5310314644   -0.7320563195
H        3.7051738095   -1.0663107747    1.3530016107
17   

C        6.2646323338   -0.1042235347   -0.0290554247
C        5.2016605974   -1.0996667743   -0.1668776868
C        5.9218056051    1.2224926650    0.0570009442
C        3.8791654531   -0.7420714901   -0.1881625351
C        4.5240704328    1.6032855041    0.0099191876
C        2.8031174041   -1.7669852026   -0.4035259428
C        1.4439541332   -1.3619596800   -0.9576125746
N        3.5532288539    0.6360898983   -0.1161126533
O        4.1763994792    2.7692038326    0.0673702703
O        2.9716906851   -2.9186865758   -0.0316716827
H        7.3052979709   -0.4106086819    0.0019437930
H        5.4707810933   -2.1484266220   -0.2521735200
H        6.6633443498    2.0028976272    0.1576812705
H        1.5749847714   -0.8266897906   -1.9019347902
H        0.9240810862   -0.7201682056   -0.2420929829
H        0.8374842618   -2.2536294198   -1.1408633159
H        2.6055456284    0.9922099963   -0.1270372575
17   

C        6.2553279123   -0.1198954612   -0.0979038476
C        5.1842672215   -1.1105400017   -0.2042676826
C        5.9202013396    1.2013260149    0.0671668432
C        3.8645757574   -0.7562803635   -0.1116008681
C        4.5227515848    1.5807213856    0.1331861206
C        2.7738708443   -1.7682767120   -0.3256359304
C        1.4847994681   -1.3727906933   -1.0319408679
N        3.5450875400    0.6170886492    0.0355445569
O        4.1810209585    2.7431574043    0.2576879125
O        2.8478610604   -2.8717291498    0.1917436240
H        7.2954629010   -0.4247908393   -0.1524830271
H        5.4427600674   -2.1540497673   -0.3578114476
H        6.6673374359    1.9786792346    0.1482198020
H        1.7203847751   -0.8775054744   -1.9778506844
H        0.9041333389   -0.6956373267   -0.4009532228
H        0.8881538139   -2.2651224239   -1.2420337756
H        2.5989197184    0.9690135592    0.1138099459
17   

C        6.2272844311   -0.1397056605   -0.1880378797
C        5.1392162191   -1.1153863634   -0.2540694984
C        5.9213878325    1.1763661416    0.0554823276
C        3.8350699803   -0.7546262144   -0.0481453543
C        4.5375590300    1.5645818483    0.2427869721
C        2.7100581202   -1.7427273109   -0.2256238851
C        1.4988360332   -1.3739966039   -1.0708220250
N        3.5444003319    0.6141749081    0.1780674615
O        4.2202292669    2.7237648476    0.4406460665
O        2.6670714108   -2.7597157670    0.4460183003
H        7.2568265059   -0.4509586044   -0.3328884048
H        5.3726997879   -2.1537729424   -0.4685839151
H        6.6814918344    1.9432560026    0.1119528744
H        1.8118692163   -1.2187317035   -2.1067955855
H        1.0360488453   -0.4592492429   -0.6935400008
H        0.7633956190   -2.1830798347   -1.0421232791
H        2.6123746898    0.9668897175    0.3578384214
17   

C        6.1992285846   -0.1559827751   -0.3371997689
C        5.0916882610   -1.1108512265   -0.3862459378
C        5.9370155004    1.1430957383    0.0208436632
C        3.8129150645   -0.7479914620   -0.0658629252
C        4.5790722887    1.5339005243    0.3423126748
C        2.6433006371   -1.7024542371   -0.1830686826
C        1.5192617587   -1.4027145568   -1.1643445572
N        3.5669472730    0.6034601789    0.2828756070
O        4.3002403399    2.6786274053    0.6512579918
O        2.4842602734   -2.5917580194    0.6338754262
H        7.2093639001   -0.4692114169   -0.5807412633
H        5.2924777405   -2.1364193867   -0.6795223068
H        6.7130209214    1.8941459523    0.0738034443
H        1.7918842637   -1.7841557368   -2.1518889912
H        1.3501997435   -0.3255603956   -1.2352367499
H        0.5959273687   -1.8886551878   -0.8370256559
H        2.6609079872    0.9457844154    0.5794894575
17   

C        6.1504561932   -0.1305795137   -0.4545314844
C        5.0176085293   -1.0558283334   -0.4961741938
C        5.9448320390    1.1465291284    0.0052434382
C        3.7670383238   -0.6799469887   -0.0927472970
C        4.6202942634    1.5441467067    0.4387968133
C        2.5672923993   -1.6092903455   -0.1280453662
C        1.6352244248   -1.5977735796   -1.3288998847
N        3.5813759647    0.6440390835    0.3744885422
O        4.3951388971    2.6679790234    0.8511523144
O        2.3018030336   -2.3047498404    0.8352369586
H        7.1360947476   -0.4490026779   -0.7784076120
H        5.1790251771   -2.0691555207   -0.8492841142
H        6.7424109334    1.8743550363    0.0617207388
H        2.1056250866   -2.1282510903   -2.1608009738
H        1.4315225419   -0.5674472116   -1.6317679753
H        0.6918940612   -2.0900141727   -1.0763809183
H        2.7072678472    0.9746155478    0.7660682555
17   

C        6.0831803152   -0.0515942573   -0.5977084904
C        4.9153904775   -0.9320337403   -0.6467508212
C        5.9518603788    1.1906279752   -0.0283347552
C        3.6942522182   -0.5328527904   -0.1762688428
C        4.6694931474    1.5967834936    0.5113267639
C        2.4901168763   -1.4522332948   -0.1241555236
C        1.9160426228   -2.0330439523   -1.4077017715
N        3.5919755970    0.7453366755    0.4238973588
O        4.5180291083    2.6826124370    1.0423278041
O        2.1296882091   -1.9088465759    0.9467050932
H        7.0387121303   -0.3778213170   -0.9955610305
H        5.0319133095   -1.9305920549   -1.0545910334
H        6.7797619048    1.8822599320    0.0441223677
H        2.7170242133   -2.2442332566   -2.1202214922
H        1.2247769298   -1.3128516392   -1.8531374592
H        1.3764773609   -2.9592700948   -1.1915140643
H        2.7590824845    1.0552767211    0.9113410345
17   

C        6.0148592265   -0.0062247401   -0.7115349587
C        4.8362524857   -0.8712264875   -0.7783134840
C        5.9152553416    1.2007277933   -0.0653670889
C        3.6299478674   -0.4837633315   -0.2568374593
C        4.6540302322    1.5879270672    0.5341153003
C        2.4285075552   -1.3949924198   -0.1932650926
C        1.9893994634   -2.1960904772   -1.4118033221
N        3.5623528038    0.7582282620    0.4195027748
O        4.5358645219    2.6361181197    1.1434899353
O        1.9368128236   -1.6581980057    0.8929816472
H        6.9555366387   -0.3182985626   -1.1536921898
H        4.9421881646   -1.8482788275   -1.2365757706
H        6.7539774936    1.8768258662    0.0265310977
H        2.8532172001   -2.5275552722   -1.9916771649
H        1.3559184228   -1.5699647791   -2.0455790528
H        1.4183871129   -3.0734028734   -1.0952948127
H        2.7488637692    1.0354878094    0.9577036952
17   

C        5.9795697648    0.0335282767   -0.7635410260
C        4.7850138696   -0.8075839255   -0.8528403173
C        5.9170689286    1.2002481105   -0.0435827083
C        3.5972790777   -0.4367718741   -0.2765392429
C        4.6777936629    1.5703922147    0.6089753371
C        2.3735758340   -1.3102375635   -0.2338681400
C        2.0197258027   -2.2359251799   -1.3903551204
N        3.5701808043    0.7660349883    0.4706105892
O        4.5938370620    2.5805263191    1.2847190560
O        1.7457838108   -1.4009038984    0.8119685009
H        6.9034972885   -0.2650475795   -1.2482947739
H        4.8666473243   -1.7513763378   -1.3796618963
H        6.7691401584    1.8565036882    0.0673758572
H        2.8798681662   -2.8459463590   -1.6737350585
H        1.6997803553   -1.6394829463   -2.2488417925
H        1.2016855768   -2.9000905861   -1.0971595099
H        2.7690141428    1.0218523773    1.0380848878
17   

C        5.9502679779    0.0838730231   -0.8286870938
C        4.7376686839   -0.7309315204   -0.9200157073
C        5.9388427522    1.2040517978   -0.0358327878
C        3.5838576038   -0.3849710869   -0.2639081742
C        4.7341194959    1.5530437282    0.6890518309
C        2.3375478922   -1.2189739994   -0.2410791133
C        2.0390574029   -2.2291912077   -1.3398761468
N        3.6094303803    0.7726178349    0.5518129664
O        4.6953409806    2.5239345749    1.4238626669
O        1.6022919691   -1.1609443702    0.7366537706
H        6.8472607894   -0.1968070036   -1.3712739636
H        4.7742015445   -1.6339730928   -1.5190742532
H        6.8060089118    1.8396998848    0.0781285376
H        2.7903284844   -3.0226646768   -1.3332353014
H        2.0449573008   -1.7287295596   -2.3117825913
H        1.0530335047   -2.6737748399   -1.1774146646
H        2.8240961241    1.0162125746    1.1468623283
17   

C        5.9213976158    0.1137338576   -0.8343034822
C        4.7104396486   -0.6967258578   -0.9751631210
C        5.9203714780    1.1604187192    0.0533128683
C        3.5717258454   -0.4260322904   -0.2598670717
C        4.7276706498    1.4388063419    0.8266518746
C        2.3128572554   -1.2359473146   -0.3117005409
C        2.0916821348   -2.2971017454   -1.3805017533
N        3.6075667890    0.6601343140    0.6487745287
O        4.6952633900    2.3488051056    1.6359418364
O        1.4661278265   -1.0745732063    0.5597979753
H        6.8083000878   -0.1112893954   -1.4178709457
H        4.7357777511   -1.5331511490   -1.6647207508
H        6.7858885828    1.7905706136    0.2043299605
H        2.8260148356   -3.0985134018   -1.2664887694
H        2.1903844882   -1.8490471104   -2.3727025691
H        1.0877129647   -2.7197902194   -1.2820466571
H        2.8155627362    0.8692111583    1.2485715301
17   

C        5.9368578343    0.0968569978   -0.8680473154
C        4.7048948049   -0.6775506742   -1.0288789046
C        5.9794922175    1.0878034980    0.0804132487
C        3.5948888381   -0.4396215293   -0.2587513919
C        4.8110673428    1.3443254574    0.8970162365
C        2.2999404417   -1.1843748567   -0.3600517874
C        2.1025308692   -2.3101232913   -1.3656438941
N        3.6753594445    0.5908653336    0.7100472383
O        4.8120256766    2.2155215914    1.7485603544
O        1.3782794544   -0.8762857794    0.3874910119
H        6.8036266594   -0.1080674852   -1.4881274865
H        4.6894799662   -1.4564335749   -1.7830818476
H        6.8606223891    1.6923883432    0.2450444869
H        2.8228713153   -3.1094855974   -1.1735855404
H        2.2407319076   -1.9291347654   -2.3807802463
H        1.0909882840   -2.7161817311   -1.2749199370
H        2.8848858053    0.8109928210    1.3080686177
