38

C     -2.62076    1.38140    3.10183
C     -2.94942    2.04216    4.28227
C     -0.79949    1.47719    5.18047
C     -1.39190    0.71861    2.92443
C     -2.03636    2.10255    5.34581
C     -0.48947    0.78372    4.00371
C     -1.23784   -0.03282    1.57409
C     -3.46518    2.32834    7.52534
C     -2.01286    2.27756    7.95891
C     -2.37428    2.84285    6.60489
C      0.19687   -3.81085    3.78354
C      1.63626   -2.89332    5.63129
C     -0.75606   -2.12314    5.37481
C      0.51798   -2.56612    4.62997
N      1.01444   -1.57488    3.63340
O     -1.73700    0.55120    0.59140
O     -0.70204   -1.18672    1.61373
O      1.90568    0.64646    2.86076
O      1.71403    0.17691    5.34987
S      1.17719    0.04295    3.98014
H     -3.31079    1.36069    2.26400
H     -3.92304    2.51914    4.38619
H     -0.06056    1.51017    5.97441
H     -3.93887    1.38994    7.25124
H     -4.12359    3.05011    8.00227
H     -1.68088    2.96436    8.73286
H     -1.53043    1.30494    7.98069
H     -2.31714    3.92803    6.52529
H     -0.58966   -3.59027    3.05531
H      1.08717   -4.13761    3.23673
H     -0.13768   -4.62972    4.43040
H      1.89882   -2.01249    6.21977
H      2.53111   -3.22561    5.09530
H      1.31308   -3.69424    6.30812
H     -0.55805   -1.27221    6.03118
H     -1.54059   -1.83900    4.66781
H     -1.12745   -2.94800    5.99468
H      0.43217   -1.58441    2.75666
