35

C     -0.66769   -4.89466    1.46409
C     -1.19206   -5.36720    0.25582
C      0.03831   -3.68515    1.50899
C     -0.28829   -3.44538   -0.87250
C     -1.01411   -4.64003   -0.92971
C      0.23404   -2.94945    0.33028
C     -0.06434    1.19602   -1.14036
C     -0.41116   -0.35522    2.16428
C      0.37604    2.10519   -2.01574
C     -1.62928   -5.11684   -2.27023
C     -1.23980    0.25092   -1.35442
C      0.54168    0.93555    0.23103
C     -2.31564    0.27052    1.00640
C     -1.43021   -0.46322   -0.01083
C     -0.05553   -0.43030    0.68599
C      0.90239   -1.59430    0.35075
O     -1.47558   -4.32293   -3.24109
O      0.29969   -0.56422    3.12216
O     -2.21869   -6.23055   -2.22773
O     -1.70656    0.05946    2.30710
H     -0.81146   -5.46411    2.38156
H     -1.75110   -6.29705    0.19472
H      0.42843   -3.30869    2.45250
H     -0.16282   -2.90482   -1.80867
H      1.24391    2.72715   -1.80463
H     -0.11079    2.24918   -2.97827
H     -2.14015    0.77566   -1.69325
H     -0.99656   -0.48779   -2.12555
H      1.63488    0.91043    0.21742
H      0.25223    1.74027    0.91883
H     -2.35591    1.35150    0.82490
H     -3.33363   -0.12050    1.05802
H     -1.78544   -1.48643   -0.13638
H      1.71741   -1.56085    1.08265
H      1.33980   -1.39187   -0.63354
