70

C     -6.20951    1.94644    0.11765
C     -2.31947    7.53397   -0.60371
C     -5.36936    3.04956   -0.04372
C     -6.38620    1.00295   -0.89621
C     -2.71070    6.44286   -1.38088
C     -4.84843    2.29289   -2.28570
C     -2.71491    7.62175    0.72955
C     -4.68161    3.24460   -1.25900
C     -5.68537    1.19897   -2.08999
C     -3.54483    6.58611    1.23220
C     -3.49131    5.44346   -0.77605
C     -2.85395    8.84174    2.82919
C     -4.24337    5.37567    4.66432
C     -6.12261    5.43576    3.00953
C     -4.83980    4.07920    5.22007
C     -6.65249    4.13925    3.62507
C     -4.84088   -1.98883   -1.79572
C     -3.20711   -0.71903   -3.10467
C     -3.86338   -3.16196   -1.80750
C     -2.29542   -1.94376   -3.06002
C     -4.11715    8.02086    3.08036
C     -4.59792    5.50798    3.17941
C     -5.32885    8.78887    2.51240
C     -1.10892    9.45246    1.22781
C     -6.87317    2.85632    5.65588
N     -3.90510    5.52879    0.49372
N     -2.25341    8.62892    1.60780
N     -3.95922    6.66734    2.54371
N     -6.29217    4.04292    5.03982
N     -4.60098   -1.18335   -3.00549
N     -3.84187    4.32564   -1.53292
O     -2.45316    9.66911    3.64480
O     -7.07301   -0.73040   -3.25132
O     -5.36446    0.58337   -4.63988
O     -2.51152   -2.71472   -1.88089
S     -5.79003   -0.03997   -3.38479
H     -6.74259    1.82882    1.05757
H     -1.68927    8.29971   -1.04287
H     -5.24357    3.76948    0.74902
H     -7.05903    0.15996   -0.78445
H     -2.40692    6.36817   -2.42084
H     -4.35102    2.41514   -3.24441
H     -4.64896    6.21254    5.24228
H     -3.15561    5.37257    4.79218
H     -6.38586    5.48733    1.94890
H     -6.59779    6.27967    3.51981
H     -4.35360    3.21095    4.72971
H     -4.62302    4.00413    6.29088
H     -7.74401    4.10612    3.54168
H     -6.25835    3.27254    3.05448
H     -5.86845   -2.35589   -1.81778
H     -4.68851   -1.38941   -0.88549
H     -2.95703   -0.03971   -2.27536
H     -3.08009   -0.19314   -4.05265
H     -3.95153   -3.73381   -0.88046
H     -4.09023   -3.82009   -2.65898
H     -2.46950   -2.56197   -3.95289
H     -1.24813   -1.63208   -3.04003
H     -4.20544    7.95505    4.16288
H     -4.17085    4.64210    2.66632
H     -5.27051    8.85305    1.42151
H     -5.34668    9.80345    2.92123
H     -6.26425    8.29184    2.77626
H     -1.36798   10.13040    0.40679
H     -0.27428    8.81599    0.91837
H     -0.82090   10.04315    2.09571
H     -6.63290    2.83767    6.72364
H     -6.50816    1.91322    5.20521
H     -7.96281    2.88235    5.55437
H     -3.47768    4.34063   -2.47619
