52

C     -7.95695    0.57515    6.12356
C     -2.58107   -1.80975   -1.75209
C     -8.15531    0.70847    4.74870
C     -7.19055   -0.49224    6.60763
C     -1.24478   -1.44869   -1.53077
C     -3.10134   -2.93844   -1.11883
C     -7.58299   -0.20574    3.85580
C     -6.63452   -1.41734    5.72493
C     -0.42636   -2.22456   -0.70853
C     -2.30015   -3.72475   -0.26726
C     -6.81963   -1.27606    4.34053
C     -0.94498   -3.36787   -0.09512
C     -1.90750   -5.69039    1.10619
C     -2.79065   -4.85440    0.53167
C     -6.75810   -2.35049    2.12789
C     -4.76033   -2.23527    3.44943
C     -6.29594   -3.65080    1.48002
C     -4.22486   -3.52594    2.84681
C     -0.42404   -5.52025    0.86252
C      0.01075   -6.24876   -0.41545
C      0.39262   -5.96714    2.07237
C     -4.26591   -4.97481    0.77704
N     -6.22162   -2.25401    3.47413
N     -4.78977   -3.71735    1.45840
O     -0.13209   -4.09173    0.72298
H     -8.39912    1.28858    6.81261
H     -3.20285   -1.22418   -2.42215
H     -8.74967    1.53127    4.36133
H     -7.04271   -0.61598    7.67678
H     -0.83332   -0.56919   -2.01737
H     -4.12569   -3.23719   -1.33910
H     -7.73769   -0.06586    2.79056
H     -6.07605   -2.26749    6.10865
H      0.61540   -1.96791   -0.54209
H     -2.23123   -6.51198    1.74149
H     -6.46511   -1.50036    1.48271
H     -7.84968   -2.36800    2.16859
H     -4.37273   -2.15284    4.46554
H     -4.37008   -1.36740    2.88519
H     -6.64380   -4.51640    2.04713
H     -6.64232   -3.72662    0.44684
H     -3.13840   -3.51340    2.75660
H     -4.53719   -4.39316    3.43250
H      1.07996   -6.09334   -0.58543
H     -0.54176   -5.88259   -1.28511
H     -0.17495   -7.32285   -0.32022
H      1.45310   -5.77025    1.89876
H      0.26259   -7.03999    2.24062
H      0.08290   -5.42803    2.97208
H     -4.50711   -5.81666    1.42729
H     -4.83719   -5.07512   -0.14994
H     -4.44830   -2.92856    0.89001
