40

C      8.92306   -1.73533   -1.29452
C      7.31326   -1.35518    0.39336
C     10.02224   -1.71890   -2.33033
C      7.36871   -1.62793    8.15742
C     11.19065    2.05740   -3.79115
C     12.74856    0.40987   -2.65575
C      6.60237   -1.09701    6.94112
C      7.23003   -1.52648    5.60955
C      6.46474   -0.99020    4.39193
C     10.94968   -0.43552   -4.24056
C      7.11428   -1.42733    3.08191
C     11.92139    0.71288   -3.91177
N      8.31879   -2.83382   -0.92361
N      7.37727   -2.60642    0.04727
N      9.95193   -0.66556   -3.19639
O     10.89365   -2.57804   -2.34201
O      6.45955    0.80219    1.67592
S      8.39705   -0.28786   -0.45535
S      6.18943   -0.69049    1.65896
H      7.39995   -2.72354    8.15815
H      8.40356   -1.26687    8.16106
H      6.90036   -1.30701    9.09376
H     10.51188    2.06346   -2.92967
H     11.90187    2.87682   -3.64549
H     10.60341    2.28133   -4.68964
H     12.10733    0.34841   -1.76967
H     13.48485    1.20063   -2.47754
H     13.27963   -0.54243   -2.74566
H      6.55942   -0.00112    6.98254
H      5.56255   -1.44660    6.98051
H      7.27347   -2.62289    5.56363
H      8.26950   -1.17476    5.56810
H      6.43268    0.10421    4.42905
H      5.42641   -1.34375    4.42595
H     10.42150   -0.22539   -5.17729
H     11.49652   -1.37227   -4.36411
H      7.08834   -2.51163    2.93460
H      8.14530   -1.07012    2.99786
H     12.60537    0.77259   -4.76936
H      9.13644   -0.06815   -3.16748
