54

C     -0.15680  -10.40195    4.59996
C     -0.71463  -10.01395    5.83974
C     -0.10761   -9.50204    3.55401
C     -1.19131   -8.73125    6.01415
C     -0.49816   -7.87334   -2.09597
C      1.69896   -7.86621   -1.11789
C     -1.04439   -5.95019    2.80142
C     -0.01064   -8.55530   -3.21956
C      2.20037   -8.54427   -2.22220
C     -1.53831   -5.54684    4.06253
C     -0.61397   -8.18122    3.68690
C     -1.14921   -7.78109    4.95792
C      0.33858   -7.51704   -1.03706
C     -0.59317   -7.24627    2.58833
C      1.34661   -8.89458   -3.28372
C     -1.60353   -6.43683    5.10677
C     -0.38739  -12.96941   -8.26821
C      3.13321  -11.94340   -9.05266
C     -0.19554   -6.80004    0.17977
C      0.66943  -12.51240   -7.26245
C      1.88975  -11.06134   -8.84627
C      2.00681  -10.66496   -6.43269
C      1.10811   -9.95156   -5.42623
N     -0.08370   -7.65932    1.35822
N      1.21118  -11.17819   -7.54942
O      1.93183   -9.55924   -4.32401
Cl    -2.26053   -5.88530    6.64822
H      0.24394  -11.40418    4.47389
H     -0.75573  -10.72417    6.66136
H      0.36038   -9.81027    2.62433
H     -1.60355   -8.43051    6.97095
H     -1.55475   -7.61719   -2.05468
H      2.36569   -7.60419   -0.29986
H     -1.03927   -5.22414    1.99713
H     -0.69118   -8.81069   -4.02352
H      3.25052   -8.81349   -2.29031
H     -1.88608   -4.52747    4.19788
H     -1.16724  -12.20890   -8.37732
H      0.03846  -13.16698   -9.25661
H     -0.85382  -13.89787   -7.92261
H      3.89216  -11.75464   -8.28585
H      2.88619  -13.00950   -9.02592
H      3.58471  -11.73320  -10.02851
H      0.38586   -5.88897    0.36555
H     -1.23595   -6.48615    0.00150
H      1.46791  -13.27328   -7.19099
H      0.20649  -12.46936   -6.27125
H      1.15962  -11.27193   -9.63368
H      2.16676  -10.00861   -8.97006
H      2.73887   -9.94284   -6.80607
H      2.57685  -11.45259   -5.91349
H      0.30651  -10.61338   -5.07574
H      0.64913   -9.07338   -5.89578
H     -0.26594   -8.63054    1.13659
