29

C      5.47588    2.70161   -0.11613
C      5.41479    4.78859    0.80791
C      4.15242    2.48489    0.27685
C      4.08399    4.55733    1.19721
C      3.47133    1.17503   -0.03962
C      0.60041   -0.63705    1.43315
C     -0.05571    0.14948   -0.41354
C      1.34904   -0.05291    0.20823
C     -1.89057   -0.58273    1.14998
C     -2.98239   -0.91039    0.14138
N      6.10458    3.85590    0.15136
N      3.45687    3.42594    0.93918
N     -0.58423   -0.83208    0.56579
N      2.18722    1.10017    0.40206
O      4.06717    0.28457   -0.64594
F     -4.23731   -0.63187    0.70631
Cl     3.20822    5.80461    2.05749
H      6.02094    1.92990   -0.65009
H      5.90935    5.73010    1.03278
H      0.99564   -1.54679    1.89591
H      0.44417    0.13171    2.20910
H     -0.43017    1.17324   -0.23852
H     -0.19212   -0.11240   -1.46728
H      1.93290   -0.80441   -0.32024
H     -2.01123   -1.22758    2.02734
H     -2.00890    0.46437    1.48691
H     -2.96017   -1.96922   -0.13056
H     -2.89052   -0.30122   -0.76420
H      1.82607    1.91562    0.88678
