27

C     -1.47687    0.86591   -1.57027
C     -0.96113   -0.09370   -0.68684
C     -2.53426    0.54147   -2.43294
C     -1.47482   -1.39763   -0.64213
C     -3.04874   -0.75242   -2.39620
C     -2.51799   -1.69814   -1.51404
C     -6.02837    0.26901   -3.03716
C     -6.42819    2.07021   -4.35589
C     -3.98715   -2.87656   -2.77724
C     -7.29428    2.45094   -3.13346
C     -4.22672   -1.38837   -3.10695
N     -5.55048    0.95727   -4.00625
N     -5.52831   -0.93194   -2.59058
O     -3.14305   -2.92029   -1.59392
S     -7.53708    0.86546   -2.24200
H     -1.05254    1.86597   -1.58582
H     -0.14153    0.17367   -0.02464
H     -2.95576    1.27388   -3.11443
H     -1.07711   -2.14692    0.03560
H     -7.07061    1.77228   -5.19633
H     -5.83269    2.92788   -4.68472
H     -4.90594   -3.42354   -2.56025
H     -3.44703   -3.36950   -3.59234
H     -6.77815    3.15320   -2.47355
H     -8.26361    2.86520   -3.41685
H     -4.23588   -1.20378   -4.18076
H     -5.66071   -1.09246   -1.59668
