36

C      0.02060   -1.64749   -0.10444
C      1.07257    0.93819   -0.16065
C      1.27432   -1.40709    0.47115
C      1.80616   -0.09887    0.43853
C     -0.68748   -0.60885   -0.70128
C     -0.16803    0.68868   -0.72455
C     -2.71975    0.18932   -1.69713
C      2.04276   -2.56271    1.08649
C      3.14545    0.22400    1.07228
C      3.17224   -2.10629    2.01571
C      4.00603   -1.01501    1.33932
C     -2.28808    1.57581   -1.24974
C     -2.38022    3.25687    0.65277
C     -2.80309    1.86520    0.17234
N     -1.93940   -0.81905   -1.35327
N     -3.85625    0.02976   -2.37375
O     -0.87151    1.68664   -1.37365
H     -0.39804   -2.65260   -0.08629
H      1.46951    1.94925   -0.19708
H      1.34845   -3.22117    1.61959
H      2.46942   -3.16302    0.27178
H      3.68150    0.94006    0.44040
H      2.95382    0.74191    2.02184
H      2.75102   -1.71875    2.95188
H      3.79698   -2.96482    2.27951
H      4.41192   -1.39702    0.39428
H      4.86109   -0.73727    1.96269
H     -2.68755    2.31374   -1.95058
H     -1.29225    3.34901    0.68486
H     -2.76711    3.43724    1.65876
H     -2.76880    4.04125   -0.00464
H     -3.89628    1.77904    0.16311
H     -2.42906    1.09601    0.85650
H     -2.18776   -1.77471   -1.59939
H     -4.20575   -0.87741   -2.66675
H     -4.41270    0.83763   -2.62820
