36

C      0.04248   -1.60623   -0.10306
C      1.02928    1.00569   -0.10975
C      1.28365   -1.34304    0.48951
C      1.78256   -0.02152    0.48191
C     -0.68537   -0.57684   -0.69210
C     -0.19867    0.73353   -0.69059
C     -2.72666    0.18484   -1.69812
C      2.07457   -2.48806    1.09611
C      3.10663    0.32536    1.13466
C      3.18226   -2.01735    2.04423
C      3.99533   -0.89549    1.39312
C     -2.33485    1.57485   -1.22558
C     -2.48951    3.22406    0.70059
C     -2.87194    1.82962    0.19498
N     -1.92469   -0.80863   -1.36064
N     -3.85181    0.00691   -2.38898
O     -0.92039    1.72316   -1.33245
H     -0.35079   -2.62170   -0.10425
H      1.40087    2.02685   -0.12700
H      1.39157   -3.17167    1.61186
H      2.52486   -3.06519    0.27736
H      3.63107    1.06374    0.51891
H      2.89218    0.82442    2.08942
H      2.74152   -1.65459    2.98133
H      3.82570   -2.86377    2.30218
H      4.42090   -1.25307    0.44718
H      4.83635   -0.60564    2.02994
H     -2.74562    2.31300   -1.91963
H     -1.40462    3.34252    0.74732
H     -2.89267    3.38000    1.70427
H     -2.88958    4.00826    0.04987
H     -3.96243    1.71606    0.17259
H     -2.48566    1.05988    0.87167
H     -2.14622   -1.76644   -1.62341
H     -4.17444   -0.90417   -2.70011
H     -4.42507    0.80441   -2.63881
