42

C      1.14694   -0.73854  -11.13604
C     -0.14085   -0.85890  -10.60310
C      2.25174   -0.78413  -10.27909
C     -0.32093   -1.02271   -9.22792
C      2.06931   -0.94745   -8.90419
C      1.46179   -2.03536   -6.13346
C     -0.47799   -0.62024   -6.22194
C      1.27698   -2.19919   -4.75873
C     -0.65794   -0.78521   -4.84910
C      0.78050   -1.06946   -8.35481
C      0.58794   -1.24261   -6.89464
C      0.21133   -1.58191   -4.08522
C      3.05734   -0.57050   -1.27141
C     -0.01859   -3.12747   -0.58659
C     -1.39813   -2.41931   -0.70690
C      0.64304   -2.98570   -1.97087
C     -1.43709   -1.79957   -2.12491
C      0.04148   -1.69864   -2.57887
C      0.66675   -0.43748   -1.91823
N      2.08899   -0.27934   -2.18371
O      2.86085   -0.94593   -0.12038
H      1.28791   -0.61133  -12.20617
H     -1.00633   -0.83515  -11.26052
H      3.25677   -0.68283  -10.68093
H     -1.32475   -1.14360   -8.82960
H      2.93430   -0.95439   -8.24626
H      2.27944   -2.55567   -6.62547
H     -1.15892    0.02126   -6.77517
H      1.96719   -2.83189   -4.20949
H     -1.48873   -0.27810   -4.36579
H      4.07448   -0.42120   -1.68178
H      0.60247   -2.64547    0.17255
H     -0.11721   -4.17800   -0.29895
H     -2.23022   -3.11490   -0.56541
H     -1.50451   -1.64704    0.06102
H      1.73341   -2.95967   -1.90183
H      0.37334   -3.83203   -2.61314
H     -1.97023   -2.45876   -2.81813
H     -1.95264   -0.83347   -2.14091
H      0.55409   -0.47707   -0.83414
H      0.14138    0.45250   -2.28073
H      2.37824   -0.06111   -3.12931
