42

C      1.21881   -0.80600  -11.07117
C      0.46300    0.15190  -10.38679
C      1.81060   -1.85253  -10.35594
C      0.30119    0.06314   -9.00255
C      1.64661   -1.94013   -8.97181
C      1.76837   -1.49843   -5.97005
C     -0.50342   -0.74968   -6.19046
C      1.60349   -1.58534   -4.59029
C     -0.66419   -0.84020   -4.80588
C      0.88917   -0.98445   -8.27136
C      0.71570   -1.07928   -6.80189
C      0.38199   -1.26610   -3.97663
C      1.42007    1.89024   -3.19061
C      0.11344   -2.78705   -0.46744
C     -1.13986   -1.86683   -0.50591
C      0.77537   -2.65794   -1.85995
C     -1.21185   -1.32917   -1.94957
C      0.24719   -1.32911   -2.46299
C      1.04772   -0.15323   -1.83808
N      0.64787    1.15476   -2.33657
O      2.56326    1.61518   -3.53012
H      1.34629   -0.73687  -12.14837
H      0.00803    0.97613  -10.93054
H      2.39370   -2.60713  -10.87802
H     -0.26237    0.83025   -8.47827
H      2.08910   -2.77234   -8.43090
H      2.73898   -1.72150   -6.40452
H     -1.34624   -0.44383   -6.80488
H      2.45224   -1.88398   -3.98130
H     -1.62789   -0.58113   -4.37812
H      0.89747    2.80112   -3.54057
H      0.79990   -2.47322    0.32467
H     -0.15198   -3.82655   -0.25564
H     -2.05540   -2.39958   -0.23425
H     -1.03529   -1.04488    0.20951
H      1.86789   -2.68985   -1.80754
H      0.46166   -3.48022   -2.51102
H     -1.80251   -2.01150   -2.57033
H     -1.70088   -0.34993   -2.00806
H      2.10625   -0.25800   -2.07917
H      0.95357   -0.16795   -0.74679
H     -0.30609    1.46046   -2.19621
