29

C     -0.92484    5.00229    2.83638
C     -0.21261    5.55423    3.90870
C     -0.39366    3.92202    2.13182
C      1.02473    5.02323    4.27831
C      0.84797    3.36917    2.48227
C      1.52528    3.94253    3.56014
C      0.40937    0.34733    3.01279
C     -0.17689   -1.21289    4.61402
C      0.66941   -0.08074    5.22371
C      1.65119    2.46255    0.23777
C      1.44944    2.19898    1.73010
N     -0.45082   -0.64489    3.28036
N      0.58224    0.98107    1.86994
O      1.13835    0.68680    4.05761
F      2.72638    3.42396    3.92705
H     -1.88431    5.41993    2.54717
H     -0.61738    6.40097    4.45500
H     -0.95036    3.50767    1.29424
H      1.60246    5.43255    5.10119
H      0.37379   -2.15381    4.52795
H     -1.10463   -1.37829    5.16309
H      0.08731    0.60758    5.83757
H      1.55410   -0.41890    5.75893
H      0.70572    2.69304   -0.26382
H      2.11766    1.60355   -0.25378
H      2.30678    3.32675    0.11527
H      2.40762    1.94110    2.18103
H     -0.98485   -1.12837    2.56787
H      0.00838    0.70991    1.07872
