41

C      0.68410   -3.13353   -8.57099
C     -0.49462   -2.40597   -8.47716
C      1.45543   -3.40607   -7.42920
C     -0.15488   -2.14429   -6.07535
C     -0.92299   -1.93260   -7.23385
C      1.03568   -2.90095   -6.18559
C      2.67822   -4.25629   -7.58164
C     -0.93906   -0.68842   -0.58523
C     -2.34972   -1.34123   -0.46732
C     -0.36288   -1.17239   -1.93367
C     -2.56562   -2.12647   -1.78412
C     -1.60699   -1.46267   -2.78829
C     -5.13238   -1.85627   -7.18178
C     -1.34626   -2.31717   -4.00925
C     -3.71133   -2.41550   -7.19989
O      3.17525   -4.95854   -6.72642
O     -2.68035   -0.25231   -6.01339
O     -2.62614   -0.40308   -8.56032
O      3.18202   -4.18738   -8.84614
O     -0.46827   -1.57386   -4.88721
S     -2.51141   -1.04143   -7.23853
Cl     1.97147   -3.10267   -4.73256
H      1.02383   -3.49870   -9.53285
H     -1.07657   -2.17769   -9.36415
H     -1.02724    0.40273   -0.58419
H     -0.28784   -0.95310    0.25304
H     -2.43114   -1.99588    0.40535
H     -3.11848   -0.57031   -0.35561
H      0.31084   -0.45003   -2.40055
H      0.20235   -2.10361   -1.79673
H     -2.27878   -3.17779   -1.64795
H     -3.60800   -2.11425   -2.11878
H     -2.03967   -0.51651   -3.13535
H     -5.29768   -1.23872   -6.29576
H     -5.32610   -1.25196   -8.07123
H     -5.84570   -2.68558   -7.16507
H     -2.28313   -2.53132   -4.53563
H     -0.86423   -3.26564   -3.73820
H     -3.51203   -3.01901   -8.08907
H     -3.48807   -3.00733   -6.30892
H      3.94553   -4.79608   -8.86109
