23   

C       -4.8417754905   -6.8683090907   -2.0342757882
C        1.3690716170   -4.7560846750    3.1303976080
C       -3.3355728355   -4.8946904544   -1.4716640763
C        0.9923845196   -5.4043948537    1.9980772161
C       -3.7813254361   -6.5104764747    0.1707573344
C       -4.0165798689   -6.1339016096   -1.1247034638
C       -2.5758945630   -4.3762083332   -0.4440670977
C        1.0145519057   -3.3680794841    3.3032503214
C       -0.0837997468   -3.3468922704    1.2835569963
C       -1.8558197225   -3.1092718631   -0.4969829350
C       -0.8855133087   -2.6259284124    0.3053439557
N       -5.5092192970   -7.4694024952   -2.7754161320
N        0.3087877641   -2.6922135130    2.3339047112
N        0.2560422598   -4.6824609477    1.0601897284
O        1.3203272077   -2.7958629595    4.3350140123
S       -2.7253174269   -5.3833777433    1.0089047876
H        1.9298457184   -5.2419671962    3.9161872183
H       -3.4311106701   -4.4270557272   -2.4463162623
H        1.2602624252   -6.4476295921    1.8469596498
H       -4.1988042494   -7.3983484986    0.6321660155
H       -2.1514971658   -2.4481496144   -1.3055929673
H       -0.7261170377   -1.5546658199    0.2963351267
H       -0.0530528933   -5.0880888400    0.1842824014
23   

C       -4.5165179045   -7.0179221805   -1.9819717061
C        1.4184881809   -4.8328515357    3.0714417887
C       -3.1738407547   -4.9317808196   -1.4118557403
C        0.8894717259   -5.4655978804    1.9926540261
C       -3.8090406374   -6.4007440449    0.3063813884
C       -3.8602012488   -6.1616287920   -1.0419628379
C       -2.6029852662   -4.2822133003   -0.3396613593
C        1.1940538288   -3.4177027814    3.2431116208
C       -0.0701041445   -3.3353148108    1.3240765571
C       -1.8925396744   -3.0039293597   -0.3854846690
C       -0.8861604128   -2.5637883956    0.3957690864
N       -5.0456180417   -7.7182897107   -2.7471554356
N        0.4624171104   -2.7002873425    2.3237500599
N        0.1340027496   -4.6994373018    1.1070236653
O        1.6378917111   -2.8564398961    4.2297670280
S       -2.9257176398   -5.1515634168    1.1721857138
H        2.0071007530   -5.3512555077    3.8149287005
H       -3.1281434026   -4.5670951456   -2.4330722090
H        1.0561124251   -6.5298448505    1.8422975544
H       -4.2634301456   -7.2582620783    0.7899817665
H       -2.1756578338   -2.3402463915   -1.1964959562
H       -0.6825675499   -1.4999668722    0.3926156926
H       -0.2895220273   -5.0925462622    0.2739083853
23   

C       -4.2147910361   -7.1249569718   -2.0311836327
C        1.3274946563   -5.0535299639    3.0534980133
C       -3.0406647212   -4.9613266818   -1.3832767003
C        0.6629385048   -5.6323102497    2.0204736721
C       -3.9153844516   -6.3483007380    0.2985097849
C       -3.7472887502   -6.1910811467   -1.0529631394
C       -2.6858893365   -4.2274822960   -0.2751960064
C        1.2361674757   -3.6258840582    3.2431494790
C       -0.1567944331   -3.4227140939    1.4239297372
C       -1.9832621180   -2.9375394695   -0.2452337877
C       -0.9595047789   -2.5737040771    0.5508525503
N       -4.5895286143   -7.8885621767   -2.8263599059
N        0.4980997482   -2.8430998742    2.3840517465
N       -0.0914865653   -4.7990313529    1.1971203571
O        1.8061586484   -3.1097515994    4.1888187431
S       -3.2219298633   -5.0191369501    1.2174136124
H        1.9286937698   -5.6244482860    3.7467217122
H       -2.8243671539   -4.6588939587   -2.4030981067
H        0.7264160206   -6.7057409388    1.8568655703
H       -4.4224160717   -7.1914983103    0.7543827703
H       -2.2440896015   -2.2334134061   -1.0291765842
H       -0.7071134024   -1.5210109880    0.5890923245
H       -0.6099841112   -5.1491116018    0.3987695305
23   

C       -3.9143990543   -7.2396565482   -2.0029771259
C        1.2797350308   -5.1656837136    2.9883206623
C       -2.8995899590   -5.0004519707   -1.3428390895
C        0.4932266310   -5.7132675660    2.0264719712
C       -3.9918778519   -6.2968814054    0.2834047531
C       -3.6226286455   -6.2265826996   -1.0354320118
C       -2.7462589441   -4.1799471092   -0.2514413885
C        1.3022811167   -3.7322983094    3.1530274125
C       -0.2103033069   -3.4604565510    1.4404868839
C       -2.0581094473   -2.8783394278   -0.1748922471
C       -1.0065030573   -2.5665569438    0.6048532534
N       -4.1457525557   -8.0677464496   -2.7881051251
N        0.5546598790   -2.9136803687    2.3366134897
N       -0.2665057116   -4.8425615085    1.2481661194
O        1.9839392527   -3.2415257471    4.0362837590
S       -3.4763629860   -4.8864482136    1.1989805927
H        1.8964096774   -5.7658624829    3.6420909206
H       -2.5252148144   -4.7643753789   -2.3342020135
H        0.4686088483   -6.7910506623    1.8820833054
H       -4.5449124998   -7.1229342280    0.7168451424
H       -2.3333893405   -2.1406734816   -0.9222192089
H       -0.7122292863   -1.5250970033    0.6519511136
H       -0.8675318913   -5.1683471474    0.4985342706
23   

C       -3.6502251633   -7.2832908517   -1.9633514356
C        1.2367301064   -5.1972212309    2.9475571262
C       -2.7765390183   -4.9948424775   -1.2708717584
C        0.3341140625   -5.7217959387    2.0792286658
C       -4.1203327632   -6.2160188461    0.2193592580
C       -3.5334107160   -6.2133435931   -1.0203963060
C       -2.8224693223   -4.1126633279   -0.2195892088
C        1.3607152965   -3.7641193786    3.0594044454
C       -0.2746707017   -3.4473102485    1.4711418740
C       -2.1545817800   -2.8016113928   -0.0838936948
C       -1.0762537401   -2.5252193828    0.6711194538
N       -3.7397043745   -8.1577766440   -2.7267864135
N        0.5944379627   -2.9245077022    2.2829414669
N       -0.4381281770   -4.8281180719    1.3400176536
O        2.1510397252   -3.2913300940    3.8579339887
S       -3.7771132945   -4.7483447150    1.1265597987
H        1.8734011259   -5.8155892583    3.5641409929
H       -2.2354190499   -4.8084702709   -2.1936970824
H        0.2312009270   -6.7996414512    1.9758135316
H       -4.7336192200   -7.0256203042    0.5997171847
H       -2.4927108483   -2.0152082829   -0.7515352326
H       -0.7568375768   -1.4913384291    0.7226120854
H       -1.1163852022   -5.1377208926    0.6518474646
23   

C       -3.4760883778   -7.3166633081   -1.9352173449
C        1.2621283449   -5.2528396352    2.8462264141
C       -2.6725533988   -5.0250371743   -1.1718906399
C        0.2548469655   -5.7550941604    2.0861398037
C       -4.3693844946   -6.1124264746    0.0339697747
C       -3.5217411014   -6.2004346177   -1.0410480227
C       -2.8957445726   -4.0950196936   -0.1864710050
C        1.4665650273   -3.8256932461    2.8965361435
C       -0.2983005156   -3.4714285005    1.4618503033
C       -2.2448063262   -2.7825088333    0.0095313721
C       -1.1350841041   -2.5282283785    0.7258710696
N       -3.4344445503   -8.2292208911   -2.6570319265
N        0.6649971165   -2.9704314639    2.1753731232
N       -0.5393656868   -4.8450985079    1.3908275777
O        2.3577425510   -3.3713556499    3.5931984252
S       -4.1680528412   -4.6088034276    0.9255461552
H        1.9240692784   -5.8846656759    3.4211413570
H       -1.9455296515   -4.8989285815   -1.9688878942
H        0.0882078220   -6.8285850003    2.0328827693
H       -5.0878714189   -6.8782137178    0.3052885127
H       -2.7406609677   -1.9297714014   -0.4438745006
H       -0.8208342519   -1.4943914928    0.8040905596
H       -1.3033840624   -5.1388921416    0.7914565659
23   

C       -3.7741085844   -7.7259753530   -0.7357094498
C        1.1254908160   -5.0122963457    3.2710752900
C       -2.5894590470   -5.4736829018   -0.6759292652
C       -0.0346640742   -5.4896029284    2.7503222420
C       -4.7637761792   -5.6550982706    0.1900745019
C       -3.7327928234   -6.3337808954   -0.4076112716
C       -2.7725535376   -4.1859538662   -0.2321593216
C        1.6721292078   -3.7766612027    2.7659880440
C       -0.0770129798   -3.5493570184    1.2867355614
C       -1.8844894846   -3.0202834267   -0.3997262297
C       -0.7333249351   -2.7612427496    0.2483604353
N       -3.8060781331   -8.8608753633   -0.9935721111
N        1.0323333333   -3.0756402409    1.7695694109
N       -0.6404648417   -4.7431327378    1.7409898932
O        2.7111082780   -3.3439131040    3.2342470826
S       -4.3845072664   -3.9570868145    0.4523746464
H        1.6615767464   -5.5246639102    4.0572090342
H       -1.6932337163   -5.8144947752   -1.1866646098
H       -0.4616976936   -6.4194420739    3.1191889254
H       -5.7084037780   -6.1086658305    0.4695695180
H       -2.2887326748   -2.1970902116   -0.9807722967
H       -0.2255985302   -1.8359809250    0.0035465734
H       -1.5139052627   -5.0240626636    1.3081119753
23   

C       -3.6120530207   -7.7478270153   -0.6366386812
C        1.1377868051   -5.0507440439    3.2408028298
C       -2.5249155558   -5.4493830146   -0.5191816932
C       -0.0871588525   -5.4568399382    2.8171436133
C       -4.8225542001   -5.6597359052   -0.0898139124
C       -3.6750557825   -6.3353622490   -0.4164040056
C       -2.8244022789   -4.1413877275   -0.2150606391
C        1.7216509423   -3.8582284014    2.6772635185
C       -0.1170430073   -3.5342414586    1.3303525485
C       -1.9631928950   -2.9534870915   -0.3040592833
C       -0.7985019569   -2.7169289226    0.3317428923
N       -3.5610106002   -8.8986826665   -0.8053563444
N        1.0502973856   -3.1238974206    1.7266241535
N       -0.7184458873   -4.6843847019    1.8434920834
O        2.8232604983   -3.4943187721    3.0514107998
S       -4.5484341578   -3.9333730192    0.1099732740
H        1.6989236138   -5.5889816231    3.9913863137
H       -1.5383472366   -5.7877873907   -0.8239678147
H       -0.5441442487   -6.3519408581    3.2331508742
H       -5.7914953259   -6.1313847936    0.0316803313
H       -2.3958623739   -2.0933771698   -0.8057602871
H       -0.2892439112   -1.7901620377    0.0958888084
H       -1.6427121824   -4.9071622455    1.4893446065
23   

C       -3.4690204686   -7.7636744307   -0.5146584541
C        1.1290386995   -5.0597505211    3.2333850012
C       -2.4823082770   -5.4226054995   -0.3641021240
C       -0.1480402812   -5.3938633330    2.9139082860
C       -4.8132252544   -5.6940850116   -0.3315686752
C       -3.6083221317   -6.3437595337   -0.4054093495
C       -2.8655498282   -4.1085318843   -0.2097524275
C        1.7382632304   -3.9128088158    2.6056239845
C       -0.1736556712   -3.4986495987    1.3921778808
C       -2.0469325253   -2.8938293911   -0.2077348503
C       -0.8758102927   -2.6647782064    0.4223335443
N       -3.3579833382   -8.9200752370   -0.5921907982
N        1.0404244018   -3.1506854410    1.6966442531
N       -0.8045867436   -4.5972943389    1.9771003054
O        2.8880737289   -3.6171090243    2.8819239867
S       -4.6254889069   -3.9496295227   -0.2034379486
H        1.7138117916   -5.6230497093    3.9466358813
H       -1.4500148339   -5.7448717071   -0.4708766244
H       -0.6250833714   -6.2528110886    3.3806506013
H       -5.7751538509   -6.1943584080   -0.3504539819
H       -2.4965354537   -2.0224077730   -0.6737571644
H       -0.3673120443   -1.7371698911    0.1883005246
H       -1.7648160539   -4.7682288531    1.6975064229
23   

C       -3.3720710092   -7.7441577317   -0.4151361244
C        1.1123129279   -5.0793997379    3.2591006001
C       -2.4412403317   -5.3836753447   -0.2239680427
C       -0.2043695622   -5.3263002931    3.0359194758
C       -4.7414410368   -5.6897965547   -0.5776084829
C       -3.5376199756   -6.3228758409   -0.4086625910
C       -2.8520739020   -4.0671543493   -0.2180395087
C        1.7532860897   -3.9845391162    2.5723882737
C       -0.2021941140   -3.4612347009    1.4773038292
C       -2.0786683971   -2.8324699897   -0.1094899704
C       -0.9083155720   -2.6098224394    0.5268110390
N       -3.2416088366   -8.9011545064   -0.4088584045
N        1.0484769390   -3.1887040369    1.6981009362
N       -0.8683740808   -4.4974064756    2.1330485530
O        2.9381527067   -3.7692243158    2.7606415782
S       -4.5900835498   -3.9386515383   -0.5134815919
H        1.7060265519   -5.6754074970    3.9375694400
H       -1.4064172503   -5.7027244242   -0.1379288868
H       -0.7054122003   -6.1442017223    3.5490476839
H       -5.6822265811   -6.2056743670   -0.7344050411
H       -2.5321572252   -1.9549993327   -0.5601365375
H       -0.3946588198   -1.6840220489    0.2972963984
H       -1.8534758865   -4.6090234053    1.9177266903
23   

C       -3.3541042498   -7.7585096001   -0.2984929662
C        1.1388305360   -5.0389208916    3.2361809255
C       -2.4615479542   -5.3848054074   -0.0935134659
C       -0.2000829544   -5.2349213491    3.1196764540
C       -4.6805026530   -5.7268165338   -0.7801672823
C       -3.5175619916   -6.3402258301   -0.3947467633
C       -2.8626177378   -4.0713657039   -0.2335140624
C        1.7682826324   -3.9834183732    2.4804870777
C       -0.2401263476   -3.4104012079    1.5152946582
C       -2.1511503952   -2.8123542944   -0.0390065839
C       -0.9804318030   -2.5647851851    0.5881849028
N       -3.2263700726   -8.9123939569   -0.2087875270
N        1.0316161542   -3.1790597982    1.6410780875
N       -0.8980507991   -4.3971821468    2.2509023153
O        2.9716147094   -3.8135416669    2.5741255265
S       -4.5388196751   -3.9743364120   -0.7884678275
H        1.7589900430   -5.6470673353    3.8793434954
H       -1.4568278641   -5.7028727630    0.1653384891
H       -0.6919660517   -6.0216718817    3.6874975080
H       -5.5863263187   -6.2574230745   -1.0514263661
H       -2.6220284305   -1.9423011436   -0.4862025229
H       -0.4859706267   -1.6305914605    0.3510319668
H       -1.9004429133   -4.4710149020    2.1148308164
23   

C       -4.2442642465   -7.2452814852    1.0142150188
C        1.2769757721   -4.9583582833    3.0737604819
C       -2.8716326808   -5.1600315869    0.5250979608
C        0.7649244056   -5.5935039391    1.9877300343
C       -4.6170151551   -5.7596872620   -0.9273950779
C       -3.9400307321   -6.0987563427    0.2139066666
C       -2.7604361569   -4.1385743421   -0.3980093149
C        1.1276700509   -3.5284111498    3.1938524999
C       -0.0573740664   -3.4390752791    1.2247155245
C       -1.8372076573   -3.0165727477   -0.5262728872
C       -0.7948012423   -2.6493256930    0.2501564303
N       -4.4842990790   -8.1850468567    1.6585516834
N        0.4667367625   -2.8036876977    2.2285811840
N        0.0978258410   -4.8140867802    1.0432058004
O        1.5747083717   -2.9583801418    4.1740609807
S       -3.9843506815   -4.2956641054   -1.6656803443
H        1.7988394069   -5.4852869808    3.8599918044
H       -2.2843927280   -5.2600558262    1.4297934559
H        0.8770031669   -6.6699121830    1.8776566689
H       -5.4494228200   -6.3249963492   -1.3311367725
H       -2.0841300297   -2.3102170963   -1.3128998149
H       -0.4983547441   -1.6083325142    0.2092326386
H       -0.2967942877   -5.2079584091    0.1963129815
23   

C       -4.3526025008   -7.2011695407    1.0183372579
C        1.2421383069   -5.1030037038    3.1213075588
C       -2.9887915372   -5.0920913774    0.6121712844
C        0.6122120174   -5.6979033167    2.0753676201
C       -4.4629773680   -5.8497865633   -1.0506537359
C       -3.9633143924   -6.0924319788    0.2018397720
C       -2.7571932226   -4.1329223614   -0.3532039301
C        1.1959843394   -3.6669673183    3.2517065788
C       -0.1092904543   -3.4888819183    1.3653666534
C       -1.8789630934   -2.9677805115   -0.3733213505
C       -0.8476421005   -2.6432061208    0.4367715884
N       -4.6612704059   -8.1106789228    1.6766141259
N        0.5186994566   -2.8954897440    2.3350043794
N       -0.0649999675   -4.8713817024    1.1798119305
O        1.7502042706   -3.1318679332    4.1962417841
S       -3.7697345366   -4.4064170449   -1.7769148262
H        1.7833063384   -5.6669767172    3.8677461063
H       -2.5423715311   -5.0978865161    1.6012633747
H        0.6428101242   -6.7789346437    1.9579870195
H       -5.2025251376   -6.4728987470   -1.5410019066
H       -2.1013927781   -2.2358657677   -1.1437296698
H       -0.5372333419   -1.6053824126    0.4420403923
H       -0.5512013207   -5.2352743738    0.3674397569
23   

C       -4.4512811968   -7.1383347273    1.0160637827
C        1.2367287198   -5.1535034968    3.1132149770
C       -3.0935323135   -5.0179580772    0.6481615753
C        0.5045084017   -5.7285082986    2.1244592165
C       -4.2947397063   -5.9422062098   -1.1442131191
C       -3.9744883525   -6.0783266293    0.1814735197
C       -2.7394096104   -4.1317516525   -0.3474070289
C        1.2682605966   -3.7156164384    3.2256152404
C       -0.1483515753   -3.4940593576    1.4253113147
C       -1.9239268504   -2.9207490960   -0.2930981808
C       -0.8934295161   -2.6200102662    0.5264911410
N       -4.8308771919   -8.0084550465    1.6902286588
N        0.5689210474   -2.9220839621    2.3448585970
N       -0.1932327430   -4.8797873976    1.2665760905
O        1.9138648350   -3.1974909742    4.1202938091
S       -3.5379242581   -4.5315772505   -1.8728420682
H        1.8032386838   -5.7348975291    3.8267194311
H       -2.7857185696   -4.9281077052    1.6860599221
H        0.4735055023   -6.8109589383    2.0212708619
H       -4.9414900896   -6.6234748280   -1.6858588788
H       -2.1415655359   -2.1755190271   -1.0520143746
H       -0.5731076417   -1.5853972654    0.5508991655
H       -0.7557792047   -5.2286444857    0.4977537485
23   

C       -4.5954899883   -7.1059414914    0.9458434700
C        1.2398440367   -5.1720650553    3.1297286926
C       -3.2334060344   -4.9750175438    0.6618855109
C        0.3959559926   -5.7367312148    2.2277035636
C       -4.1136315411   -6.0403488217   -1.2349802343
C       -4.0086103022   -6.0865107326    0.1310839262
C       -2.7324729784   -4.1487683126   -0.3200279454
C        1.3493868972   -3.7351473864    3.1927713083
C       -0.1963945887   -3.4931473613    1.5041560534
C       -1.9857242357   -2.8952032933   -0.1915814842
C       -0.9538577988   -2.6053614509    0.6283814100
N       -5.0644677125   -7.9426682084    1.6058067620
N        0.6179147370   -2.9327290129    2.3471310004
N       -0.3317056081   -4.8784441129    1.4048682440
O        2.0978803654   -3.2251772796    4.0085745620
S       -3.2739691619   -4.6563773841   -1.9237315032
H        1.8397905860   -5.7608835971    3.8089563172
H       -3.0916721139   -4.8074545082    1.7261783523
H        0.3038294139   -6.8186404629    2.1629429064
H       -4.6526682939   -6.7711165581   -1.8277322677
H       -2.2090140692   -2.1363038673   -0.9351616085
H       -0.6260617636   -1.5731036691    0.6566019767
H       -0.9690194442   -5.2200356601    0.6931258619
23   

C       -4.7229586614   -7.1246511572    0.8400210882
C        1.2396211796   -5.0962237363    3.1197347294
C       -3.4030798713   -4.9573501548    0.6419725328
C        0.3067530990   -5.6696509142    2.3160995275
C       -3.8885594254   -6.1910007890   -1.2945922534
C       -4.0317249408   -6.1378999738    0.0679812114
C       -2.7580089119   -4.1824417872   -0.2941928628
C        1.3918369089   -3.6618670921    3.1150496710
C       -0.2782177133   -3.4396703986    1.5461383784
C       -2.1036579184   -2.8780463272   -0.1179319999
C       -1.0712571609   -2.5638417472    0.6896178942
N       -5.2769528305   -7.9339580097    1.4674374982
N        0.6129206762   -2.8711279352    2.3016035431
N       -0.4640302590   -4.8226693181    1.5212918124
O        2.2247331751   -3.1439183588    3.8389095412
S       -2.9846020474   -4.8200754297   -1.9261281092
H        1.8803273338   -5.6760653948    3.7687559199
H       -3.4572282012   -4.7083410974    1.6982839569
H        0.1800970244   -6.7498939231    2.3043466529
H       -4.2863452639   -6.9852413291   -1.9166926389
H       -2.3663744233   -2.1162006544   -0.8454388494
H       -0.7599057492   -1.5262555948    0.7081606877
H       -1.1667115531   -5.1725086549    0.8785084424
23   

C       -4.8461434745   -7.1132870294    0.6984790000
C        1.2828959754   -5.0655445625    3.0816996062
C       -3.5629973988   -4.9164579333    0.6134062142
C        0.2629109674   -5.6266333644    2.3818498687
C       -3.6163569124   -6.2937983999   -1.2867457134
C       -4.0348593820   -6.1551936695    0.0118674260
C       -2.7661642862   -4.1809535933   -0.2308747392
C        1.4861496060   -3.6390380815    3.0148630301
C       -0.3039010413   -3.4005087412    1.5872063539
C       -2.1811597213   -2.8446548457   -0.0123259082
C       -1.1349829466   -2.5214048686    0.7707805541
N       -5.4986284790   -7.8982890912    1.2584327237
N        0.6646669853   -2.8429963311    2.2499630862
N       -0.5412942804   -4.7756801671    1.6254638172
O        2.4034488968   -3.1333250977    3.6384280157
S       -2.6349341281   -4.9352438758   -1.8224814469
H        1.9565031319   -5.6496175475    3.6924586242
H       -3.8274324206   -4.6030878638    1.6194356975
H        0.0949559217   -6.7005737551    2.4200792246
H       -3.8614751497   -7.1418204091   -1.9167757906
H       -2.5176949832   -2.0643055473   -0.6879537139
H       -0.8341000518   -1.4807439919    0.7888376546
H       -1.3154868369   -5.1163839573    1.0653308149
23   

C       -4.9157195357   -7.1259580004    0.5565026950
C        1.3612813840   -5.0685704299    2.9886008534
C       -3.7145291590   -4.8816015735    0.5658232904
C        0.2612122062   -5.6086160034    2.4031077343
C       -3.2663566109   -6.4221304515   -1.1493731534
C       -3.9911141348   -6.1909273884   -0.0077759448
C       -2.7823596848   -4.1728936296   -0.1513889512
C        1.6107893657   -3.6538907377    2.8562287171
C       -0.2977483272   -3.3836934537    1.5980479399
C       -2.2549737479   -2.8167435636    0.1081130942
C       -1.1828331683   -2.4930368062    0.8531899286
N       -5.6614982951   -7.8911563508    1.0188840327
N        0.7437755335   -2.8450092502    2.1575989776
N       -0.5742744590   -4.7492882771    1.6918897733
O        2.6072485384   -3.1701226572    3.3651447895
S       -2.2238245434   -5.0677563821   -1.5678815848
H        2.0650705181   -5.6609326554    3.5557755325
H       -4.2001602364   -4.5073230047    1.4623461664
H        0.0547216093   -6.6724724536    2.4956320694
H       -3.3287472679   -7.3332342226   -1.7344071050
H       -2.7686048565   -2.0003583762   -0.3901931414
H       -0.9062989879   -1.4464713062    0.8969874613
H       -1.4221398574   -5.0704531915    1.2366299757
23   

C       -4.9978790947   -7.1195776215    0.3952385106
C        1.4526478168   -5.0342794769    2.9225814875
C       -3.8395716203   -4.8549817108    0.4941284008
C        0.2846240945   -5.5610782481    2.4730321628
C       -3.0159716206   -6.5097264872   -0.9554760841
C       -3.9761310282   -6.2092932904   -0.0231040227
C       -2.7893796781   -4.1723635583   -0.0686024057
C        1.7330088665   -3.6374738877    2.6945646142
C       -0.2791759026   -3.3574826133    1.6128175793
C       -2.3132658330   -2.8046981986    0.2249111366
C       -1.2142037863   -2.4712279298    0.9249885105
N       -5.8241562879   -7.8636867104    0.7403940606
N        0.8244380576   -2.8291872080    2.0494351118
N       -0.5861039299   -4.7071541472    1.7991620858
O        2.7926909433   -3.1691515618    3.0734322310
S       -1.9136637478   -5.1682209200   -1.2386121720
H        2.1882209805   -5.6242870392    3.4505287662
H       -4.5016482084   -4.4342049704    1.2449643589
H        0.0524264057   -6.6102163068    2.6416443808
H       -2.9440927877   -7.4625155775   -1.4685779632
H       -2.9797091060   -1.9918807125   -0.0465435371
H       -0.9609758184   -1.4194672965    0.9821187117
H       -1.4893554169   -5.0150781160    1.4545119064
23   

C       -5.8312019155   -6.1552071509    0.5198445582
C        1.0229496626   -5.0195104832    3.3343625962
C       -4.0805507456   -4.3326850754    0.2144114976
C       -0.2797456542   -5.2750234550    3.0492409366
C       -3.5338278204   -6.5571421734   -0.3065283699
C       -4.5192747565   -5.7197836686    0.1499179762
C       -2.7808332314   -4.1613058387   -0.1969907950
C        1.7068534562   -3.9608795438    2.6316496541
C       -0.1863424020   -3.4741879234    1.4177500080
C       -1.9946726664   -2.9152065596   -0.2496634384
C       -0.8463385153   -2.6578933702    0.4031810305
N       -6.8961779586   -6.5112657092    0.8276295425
N        1.0519871931   -3.1952483636    1.6932663370
N       -0.8864658316   -4.4914344107    2.0699752020
O        2.8847368417   -3.7509022685    2.8643676787
S       -2.0422229948   -5.6994137055   -0.6709107451
H        1.5741317898   -5.5822377084    4.0742639954
H       -4.7199512795   -3.5225878055    0.5514558084
H       -0.8143262125   -6.0638490668    3.5736913883
H       -3.6566548045   -7.6267801249   -0.4364104824
H       -2.4586797855   -2.0709691063   -0.7500513635
H       -0.3170529095   -1.7496012197    0.1418073609
H       -1.8600276499   -4.6064630525    1.8087041514
23   

C       -5.8994192816   -6.1687974541    0.2090703626
C        1.1571886694   -4.9454657446    3.3035415022
C       -4.1349359169   -4.3387818612    0.0778744917
C       -0.1767229637   -5.1471744044    3.1494119494
C       -3.4980557484   -6.5798372984   -0.2208989331
C       -4.5484234448   -5.7341469327    0.0260709222
C       -2.7846445017   -4.1673659525   -0.1217583624
C        1.8192485505   -3.9444875262    2.5021650442
C       -0.1525460016   -3.4174807942    1.4412827128
C       -2.0392274859   -2.9018557203   -0.1500222404
C       -0.8660428283   -2.6210437912    0.4493075904
N       -6.9974694568   -6.5236677786    0.3645688781
N        1.1154401963   -3.1832382598    1.5962434693
N       -0.8365695219   -4.3694503825    2.2001114243
O        3.0220953864   -3.7847353651    2.6171075103
S       -1.9740948332   -5.7199578845   -0.3944937235
H        1.7495809301   -5.5097575831    4.0096528516
H       -4.8286481092   -3.5221758531    0.2516696619
H       -0.6944384099   -5.8914687144    3.7502846123
H       -3.5913429318   -7.6568303780   -0.3061506611
H       -2.5439498869   -2.0608683338   -0.6151965592
H       -0.3559539091   -1.7144801433    0.1471830123
H       -1.8331064305   -4.4502609682    2.0293956236
23   

C       -5.9393975829   -6.2146348245   -0.1064110086
C        1.2705304299   -4.7300145949    3.2606848733
C       -4.2153092511   -4.3427267752   -0.0492620077
C       -0.0765891560   -4.9011340551    3.2596607988
C       -3.4925086243   -6.5761185501   -0.1039773316
C       -4.5859873102   -5.7504354213   -0.0862140483
C       -2.8534702361   -4.1378474805   -0.0185599096
C        1.8647453720   -3.7812440104    2.3500667127
C       -0.1961449567   -3.2535441156    1.4772463273
C       -2.1759453275   -2.8410428053   -0.0274044152
C       -0.9928834490   -2.4976805937    0.5197457641
N       -7.0405578367   -6.5931959344   -0.1167351275
N        1.0847507212   -3.0406919124    1.4907724270
N       -0.8176603402   -4.1475479183    2.3513625758
O        3.0765895163   -3.6535572005    2.3250317222
S       -1.9801174295   -5.6806449425   -0.0710463907
H        1.9231029682   -5.2812901961    3.9226702391
H       -4.9467080708   -3.5408508123   -0.0531370131
H       -0.5425315580   -5.6050827971    3.9454818505
H       -3.5477543534   -7.6584342784   -0.1388463450
H       -2.7278719980   -2.0281726914   -0.4889097859
H       -0.5322501450   -1.5804483057    0.1738020069
H       -1.8278142162   -4.2099918321    2.2907351815
23   

C       -5.9404104592   -6.2280569498   -0.4662172963
C        1.3398182796   -4.7301610248    3.2830874976
C       -4.2299689834   -4.3649982741   -0.1762789131
C       -0.0087715896   -4.8187838844    3.4163807024
C       -3.5443984989   -6.6008345901    0.0180398294
C       -4.6085796565   -5.7704098184   -0.2124379960
C       -2.8970837661   -4.1595119234    0.1108217185
C        1.8965186124   -3.8583790184    2.2769554450
C       -0.2052988754   -3.2502686885    1.5716267790
C       -2.2385632864   -2.8584407586    0.1328959242
C       -1.0451988291   -2.5009424778    0.6484871620
N       -7.0250323926   -6.6012220683   -0.6672972687
N        1.0805628712   -3.1092228114    1.4598869692
N       -0.7906403215   -4.0624086475    2.5448729979
O        3.1053805478   -3.8090957569    2.1297621518
S       -2.0544171876   -5.7105115926    0.2918506272
H        2.0210701655   -5.2920030654    3.9061810611
H       -4.9359504008   -3.5633446154   -0.3677896387
H       -0.4449171335   -5.4630371419    4.1764103364
H       -3.6073935075   -7.6831551287    0.0279654855
H       -2.7911558128   -2.0554949348   -0.3448642608
H       -0.5980823472   -1.5888885917    0.2726304434
H       -1.8034299452   -4.0645989014    2.5839011485
23   

C       -5.0645775123   -6.7088107375   -1.8986274907
C        1.4692552666   -4.7562696501    3.2026862561
C       -3.3874579789   -4.8600859352   -1.3969714360
C        1.2079932356   -5.3997884083    2.0355859379
C       -3.6386473908   -6.6314099480    0.1190382942
C       -4.0638870874   -6.1072986597   -1.0713201174
C       -2.4381355974   -4.4809708586   -0.4702372340
C        1.0116022904   -3.3996323869    3.3813642738
C        0.0328429477   -3.4049585904    1.3009675217
C       -1.7053181007   -3.2237986619   -0.5244066598
C       -0.7606210701   -2.7164126152    0.2939963317
N       -5.8759033349   -7.2017916148   -2.5730784092
N        0.3181950672   -2.7504387187    2.3854525952
N        0.4824517181   -4.7058604477    1.0682549593
O        1.2176516694   -2.8325184876    4.4403179980
S       -2.4043350407   -5.6369900532    0.8757237217
H        2.0126432295   -5.2227787012    4.0120915780
H       -3.6258695918   -4.2831604967   -2.2846379308
H        1.5555914267   -6.4186072962    1.8803495759
H       -4.0185708033   -7.5504410192    0.5507901296
H       -2.0258961455   -2.5498066429   -1.3126422873
H       -0.6362790229   -1.6405145083    0.2884525290
H        0.2626529059   -5.1069784691    0.1640687646
