19   

C        5.6932584327    1.6988650963    0.7937900740
C        4.4444895366    1.8922222698    0.2899219600
C        5.3732873779    0.0755162514   -0.6115990430
C        4.9166906812   -1.4365495204   -2.4760919078
C        4.0965901553   -0.4281259315   -3.2747122516
C        6.6449919084   -2.0267880793   -0.8312336941
N        6.2426613737    0.5560264867    0.2393306538
N        4.2239939503    0.8639723789   -0.6137661882
N        5.6143152192   -1.1089326371   -1.3224836136
O        4.9361914834   -2.5756203117   -2.9329356719
H        6.1783294638    2.3383917281    1.5221223637
H        3.7669567204    2.6907614995    0.5696052091
H        3.9490835845   -0.7739635291   -4.3016200125
H        4.5021737042    0.5838111654   -3.2004388416
H        3.0979275075   -0.3904985462   -2.8342251909
H        6.3421383268   -2.3833034836    0.1584532979
H        7.5566266377   -1.4798704114   -0.5704546861
H        6.8443280000   -2.8760073732   -1.4924187031
H        3.3807238945    0.6743001236   -1.1422636910
19   

C        5.5840418950    1.8672255369    0.8676391208
C        4.3115660510    1.9507644045    0.3920840471
C        5.3624324283    0.1998571563   -0.5022440921
C        4.8780776198   -1.4233730131   -2.2495734966
C        4.0633741676   -0.4795475636   -3.1278604419
C        6.7439390850   -1.8383280678   -0.7033787291
N        6.2122653675    0.7643819377    0.3155470304
N        4.1526054585    0.8920318786   -0.4892571598
N        5.6782826483   -0.9723307117   -1.2065249782
O        4.7801427372   -2.6183592180   -2.5110049425
H        6.0329069209    2.5552579125    1.5747907859
H        3.5786744451    2.6977472198    0.6747764171
H        3.9992341452   -0.8816819971   -4.1426642779
H        4.4104818138    0.5556998247   -3.0838404612
H        3.0248119237   -0.5262884051   -2.7923078992
H        6.3873795903   -2.2954528352    0.2253333103
H        7.6030453745   -1.2596855710   -0.3497176631
H        7.0118253610   -2.6435979217   -1.3949648563
H        3.3159476113    0.6268455430   -0.9959932260
19   

C        5.5880847282    1.8985555296    0.8617685380
C        4.2964241042    1.9089962208    0.4313662980
C        5.4151098978    0.2256854549   -0.5053914305
C        4.8711577468   -1.4411266316   -2.1636188214
C        4.0915045014   -0.5355333818   -3.1102415290
C        6.8454339552   -1.7758612245   -0.7223685066
N        6.2608902055    0.8367314585    0.2819408134
N        4.1676677862    0.8452011022   -0.4489548745
N        5.7751718560   -0.9236080095   -1.2311708678
O        4.6331686674   -2.6415839076   -2.2340100888
H        6.0204323145    2.6093349990    1.5566455697
H        3.5316326517    2.6112492284    0.7427815688
H        4.1287269197   -0.9675321926   -4.1138817361
H        4.4179570350    0.5073030222   -3.0878515742
H        3.0261213134   -0.6392885763   -2.8910235635
H        6.4917175485   -2.2311881642    0.2085402260
H        7.7055828988   -1.1887255609   -0.3855520453
H        7.1026475400   -2.5888214068   -1.4089479801
H        3.3308492390    0.5326799520   -0.9283870322
19   

C        5.5870944882    1.8281483460    0.8928247840
C        4.2798781103    1.8749531229    0.5135305771
C        5.3471178713    0.2494919533   -0.5699617350
C        4.6429329038   -1.3052398148   -2.2444158041
C        3.9662263286   -0.3481652299   -3.2173766888
C        6.6817501160   -1.7900035839   -0.9227561067
N        6.2290812320    0.8022872161    0.2202129125
N        4.1080252957    0.8720192912   -0.4288338767
N        5.6677691131   -0.8520849436   -1.3887237520
O        4.1975095308   -2.4435198834   -2.1805191631
H        6.0511938348    2.4894284779    1.6155240174
H        3.5334178204    2.5596554377    0.8994924468
H        4.0938201652   -0.7582566042   -4.2225778107
H        4.3522543297    0.6732273122   -3.1648770440
H        2.8811827455   -0.4240168765   -3.1119567502
H        6.3179848246   -2.2428050123    0.0057238000
H        7.5905022850   -1.2710377840   -0.6018148718
H        6.8618255652   -2.5998425971   -1.6368467347
H        3.2509911408    0.5945824307   -0.8946622000
19   

C        5.6169186981    1.8366243428    0.8640554091
C        4.2929084044    1.8414749065    0.5436303382
C        5.3603596102    0.2449684055   -0.5795970216
C        4.5605545391   -1.3186584418   -2.1670368232
C        3.9584930900   -0.4345089273   -3.2495875935
C        6.6709340325   -1.7996562988   -0.9348549737
N        6.2604556029    0.8279040434    0.1669873094
N        4.1098677505    0.8298266278   -0.3873264701
N        5.6770593074   -0.8496166292   -1.4150290401
O        3.9705948559   -2.3516530787   -1.8858742668
H        6.0917728162    2.5152172243    1.5633201099
H        3.5432203597    2.5032934480    0.9617787281
H        4.2588991515   -0.8659934524   -4.2077868592
H        4.3368173799    0.5907579831   -3.2213470237
H        2.8706445137   -0.5364992528   -3.2763124037
H        6.3060028929   -2.2249682617    0.0062615701
H        7.5984810988   -1.2949932141   -0.6463550506
H        6.8197733847   -2.6291328087   -1.6331745366
H        3.2418886889    0.5191907310   -0.8110822829
19   

C        5.3806108608    1.5835416498    0.9277693893
C        4.0299564489    1.5967873761    0.7378551772
C        4.9345603535   -0.1842832973   -0.2290727010
C        4.0964539167   -1.4620856498   -2.0321278832
C        4.5362943474   -1.1926531708   -3.4620979539
C        6.3987560602   -1.8955709807   -1.1565997472
N        5.9273995606    0.4621886054    0.3235152394
N        3.7276075912    0.4661506885   -0.0071788821
N        5.0462206217   -1.3963375084   -0.9376130915
O        2.9913703967   -1.9307127146   -1.8440063064
H        5.9416539476    2.3342759873    1.4726237837
H        3.3419847619    2.3435587430    1.1171913008
H        5.1752182272   -2.0194258180   -3.7804327471
H        5.2098127189   -0.3322026700   -3.4953748009
H        3.6830641104   -1.1336091037   -4.1430919579
H        6.9322849836   -1.9996898051   -0.2059743390
H        6.9723907360   -1.1379929846   -1.7014922190
H        6.4051813073   -2.8127219735   -1.7536584330
H        2.8226540883    0.1144531857   -0.3128841706
19   

C        5.4550765889    1.6994535273    1.1008451747
C        4.1059503911    1.7455853841    0.9054108762
C        4.9817401502   -0.0178923634   -0.1203545616
C        4.0961799830   -1.3096867484   -1.9090743072
C        4.4989609096   -1.3981005059   -3.3733417440
C        6.4276859078   -1.7191722745   -1.1087530145
N        5.9839728331    0.5901054938    0.4591969886
N        3.7874591278    0.6478094576    0.1193953283
N        5.0813666212   -1.2066627918   -0.8747583365
O        2.9405227524   -1.5771159500   -1.6213254392
H        6.0275699957    2.4194074353    1.6745481776
H        3.4296627990    2.4917720989    1.3060469640
H        4.9659994565   -2.3717671344   -3.5374473739
H        5.3009770806   -0.6888241954   -3.5934887283
H        3.6306650565   -1.3245636438   -4.0336406292
H        6.9817756763   -1.8046618262   -0.1679865277
H        6.9924166780   -0.9710879408   -1.6755188433
H        6.4256550248   -2.6449987937   -1.6917728195
H        2.8808818669    0.3196727314   -0.2096276275
19   

C        5.4762258518    1.6634480970    1.2578721239
C        4.1333753923    1.7512828450    1.0370960232
C        4.9988616880    0.0445760554   -0.0923241671
C        4.1121311346   -1.2190488885   -1.9218711512
C        4.4692235276   -1.5536614400   -3.3632445520
C        6.4534972896   -1.6113297981   -1.1599582709
N        5.9985090231    0.5913597438    0.5505477054
N        3.8139548919    0.7177951488    0.1690849615
N        5.1095229229   -1.0878165116   -0.9286517277
O        2.9308420519   -1.3103564484   -1.6040316861
H        6.0491630382    2.3293624438    1.8930809783
H        3.4617296765    2.4819860167    1.4723595618
H        4.7755398247   -2.6018046758   -3.3965460642
H        5.3598373388   -1.0068389137   -3.6830788040
H        3.6049947726   -1.4448191697   -4.0240365048
H        6.9995216800   -1.7209811290   -0.2169446169
H        7.0310080022   -0.8496585761   -1.6948014009
H        6.4582703646   -2.5198582613   -1.7690987755
H        2.9123701022    0.4291935154   -0.2091111379
19   

C        5.4768690512    1.5961194805    1.3806817624
C        4.1395345682    1.7182391152    1.1460440650
C        5.0035037291    0.0884007536   -0.0974115213
C        4.1268874998   -1.1481314393   -1.9718924009
C        4.4380506609   -1.6601635834   -3.3721722895
C        6.4770340702   -1.5041313480   -1.2420789003
N        5.9979014649    0.5743387235    0.6015718964
N        3.8242373555    0.7574122450    0.1973039107
N        5.1323807022   -0.9753308119   -1.0157764821
O        2.9373507385   -1.0866521317   -1.6585741076
H        6.0471818159    2.2043577879    2.0734699859
H        3.4689525054    2.4238273674    1.6222897068
H        4.6957989701   -2.7188479288   -3.2911964179
H        5.3493331383   -1.2011673047   -3.7636920400
H        3.5697351622   -1.5770823509   -4.0313810446
H        7.0151418257   -1.6339381782   -0.2970493983
H        7.0637771927   -0.7293830433   -1.7471395458
H        6.4946872101   -2.3967101163   -1.8735352856
H        2.9287944761    0.5102099320   -0.2235675523
19   

C        5.4666468368    1.5451398774    1.4635343566
C        4.1306809194    1.6814623901    1.2317865889
C        5.0025798761    0.1387882149   -0.1175211257
C        4.1332255639   -1.0898058520   -2.0166086406
C        4.3993313250   -1.7503403538   -3.3638177440
C        6.5008526137   -1.3796549958   -1.3312952355
N        5.9923565025    0.5802219406    0.6179958959
N        3.8224254192    0.7865685853    0.2187981866
N        5.1519447675   -0.8567666889   -1.1037988212
O        2.9480130095   -0.8983332830   -1.7273491415
H        6.0332236692    2.1052180865    2.1986977655
H        3.4568062215    2.3541105184    1.7491709655
H        4.6682286394   -2.7934781120   -3.1807021267
H        5.3001662072   -1.3392547403   -3.8262536418
H        3.5156761883   -1.7250132878   -4.0072504669
H        7.0350125748   -1.5263503593   -0.3864952633
H        7.0895931162   -0.5881440853   -1.8069876997
H        6.5368563868   -2.2567198993   -1.9826263824
H        2.9318632928    0.5706493000   -0.2293813849
19   

C        5.4584002747    1.5145167879    1.5655984836
C        4.1221812435    1.6536459541    1.3392194419
C        5.0128609120    0.2138161471   -0.1109250720
C        4.1515105607   -0.9993405249   -2.0336739426
C        4.3819456723   -1.7848991296   -3.3196214875
C        6.5366581089   -1.2206213700   -1.3932681682
N        5.9957253618    0.6160896553    0.6565811851
N        3.8263582591    0.8267128873    0.2667565387
N        5.1822652391   -0.7089122115   -1.1610748494
O        2.9780470428   -0.6921054229   -1.7921698050
H        6.0175884872    2.0279201292    2.3394787211
H        3.4405251037    2.2853994339    1.8963810714
H        4.6899240253   -2.7985706953   -3.0518298207
H        5.2581255173   -1.4017106635   -3.8485383604
H        3.4814037272   -1.8244365748   -3.9385052241
H        7.0709546018   -1.3818721948   -0.4509616149
H        7.1219730557   -0.4131574286   -1.8454523935
H        6.5906326712   -2.0826493462   -2.0623767684
H        2.9414712708    0.6392888278   -0.2051999479
19   

C        5.4752881538    1.2645264892    1.7897948497
C        4.1454591335    1.4152060351    1.5378978952
C        5.0971971470    0.1444168325   -0.0302803070
C        4.2625541102   -0.9875234416   -2.0191965860
C        4.4823760252   -1.8646360959   -3.2477471201
C        6.6528798955   -1.1580457364   -1.4341634464
N        6.0497480104    0.4731632929    0.8073399410
N        3.8927697600    0.7026409375    0.3762306011
N        5.2977519809   -0.6613313039   -1.1682437690
O        3.1025830129   -0.5960474729   -1.8377541648
H        6.0050899650    1.6972473169    2.6307645099
H        3.4402170276    1.9810916574    2.1350199758
H        5.0188999708   -2.7741299552   -2.9676642748
H        5.1995563568   -1.3721735282   -3.9087569306
H        3.5461556454   -2.0731777089   -3.7727193898
H        7.4204646338   -0.7790875235   -0.7523819227
H        6.9268390146   -0.9854245071   -2.4789838973
H        6.6416065155   -2.2516962643   -1.3983235303
H        3.0257602960    0.5633024395   -0.1433757802
19   

C        5.3546315860    1.1771682452    1.8174967472
C        4.0209572294    1.3247643801    1.5816373572
C        4.9862431872    0.1951018818   -0.0800861869
C        4.1543070336   -0.9131748721   -2.0775427053
C        4.3421586217   -1.9011030480   -3.2232044583
C        6.5748993504   -0.9714585875   -1.5421489521
N        5.9389230505    0.4739710251    0.7752272827
N        3.7736869790    0.6981625834    0.3701334839
N        5.2061978404   -0.5191733798   -1.2733950754
O        3.0174366820   -0.4424698669   -1.9521385410
H        5.8803200368    1.5528199084    2.6879580105
H        3.3100911573    1.8349534760    2.2208352113
H        4.9351821817   -2.7579023744   -2.8938069775
H        4.9886159208   -1.4384470650   -3.9729580761
H        3.3885372033   -2.1803691072   -3.6794645566
H        7.3112781174   -0.2234265986   -1.2296808442
H        6.7459106929   -1.3330146036   -2.5588557887
H        6.7921739202   -1.7953844448   -0.8543802419
H        2.9084223630    0.5911991730   -0.1597430983
19   

C        5.3372550257    1.0753758814    1.8018247482
C        4.0036567360    1.2194148195    1.5612529931
C        5.0021074956    0.2158470596   -0.1582102332
C        4.1709624511   -0.8656190422   -2.1609692745
C        4.3414866169   -1.9599671468   -3.2076023458
C        6.6046561112   -0.8585393080   -1.6750445168
N        5.9431330540    0.4520497017    0.7216627300
N        3.7769038861    0.6700955580    0.3087208565
N        5.2372883385   -0.4140378111   -1.3967054875
O        3.0677007869   -0.3118116205   -2.1254978946
H        5.8481870133    1.4000535238    2.7010996326
H        3.2799831732    1.6797570872    2.2235457556
H        4.9639261029   -2.7714863392   -2.8224331372
H        4.9413949827   -1.5538333183   -4.0256063830
H        3.3788483521   -2.2876468084   -3.6094074293
H        7.3391547201   -0.1173456042   -1.3424203872
H        6.7672092368   -1.1883522512   -2.7043989630
H        6.8203446746   -1.7065287471   -1.0164267617
H        2.9196317419    0.5949721267   -0.2390274863
19   

C        5.3150476973    0.9818035962    1.8228273216
C        3.9836014693    1.1273101100    1.5688874548
C        5.0216269830    0.2491359760   -0.1919560992
C        4.1908817053   -0.8063693267   -2.1929669566
C        4.3484148294   -2.0071049574   -3.1166483776
C        6.6375938541   -0.7312660966   -1.7558609776
N        5.9466642213    0.4377654162    0.7148435141
N        3.7825188239    0.6582863581    0.2795995209
N        5.2720326134   -0.2919774950   -1.4709403050
O        3.1267624859   -0.1904223802   -2.2653429500
H        5.8068755617    1.2525039427    2.7501854728
H        3.2449828501    1.5390067272    2.2465999111
H        4.9824209699   -2.7716823233   -2.6607323940
H        4.9200159825   -1.6840561151   -3.9899863762
H        3.3795622321   -2.3723941059   -3.4678129468
H        7.3703342538    0.0046680337   -1.4080334634
H        6.7911797410   -1.0333170259   -2.7955361072
H        6.8517445399   -1.5994624916   -1.1234347920
H        2.9352804301    0.6184175429   -0.2866741698
19   

C        5.2695827808    0.8514393865    1.8372359548
C        3.9460585389    1.0213797450    1.5559662596
C        5.0321349936    0.2690784028   -0.2306364137
C        4.2096191696   -0.7350090991   -2.2420359946
C        4.3493126855   -2.0412576744   -3.0109567299
C        6.6650808084   -0.6170259227   -1.8262449860
N        5.9323096570    0.3871245387    0.7113292951
N        3.7795594948    0.6484763557    0.2305255603
N        5.3026255423   -0.1718376363   -1.5445324477
O        3.1997644851   -0.0703575430   -2.4500358144
H        5.7347091765    1.0519418168    2.7956958603
H        3.1904176977    1.3887245181    2.2404766218
H        4.9535260780   -2.7614238066   -2.4534739318
H        4.9384871327   -1.8387525051   -3.9084072165
H        3.3762887946   -2.4178055488   -3.3377896062
H        7.3986284400    0.1088625505   -1.4595925887
H        6.8161918744   -0.8907704188   -2.8744502729
H        6.8685380201   -1.5049672629   -1.2180607436
H        2.9477434143    0.6614791281   -0.3586161699
19   

C        5.2034790968    0.6961268829    1.7954444728
C        3.8914280980    0.9009971391    1.4839803806
C        5.0275299842    0.2598372261   -0.3124920045
C        4.2258887271   -0.7005713289   -2.3340042161
C        4.3334117488   -2.1165686582   -2.8794634682
C        6.6847552225   -0.5341993692   -1.9204475192
N        5.8983244606    0.3025365744    0.6621404516
N        3.7630159549    0.6219098365    0.1312115266
N        5.3228605458   -0.0853243407   -1.6489074038
O        3.2847938943   -0.0186872719   -2.7070836215
H        5.6387361164    0.8251234774    2.7798880089
H        3.1186945165    1.2317814978    2.1681833340
H        4.8244050252   -2.7700199077   -2.1537253362
H        5.0283078017   -2.1027915622   -3.7220800364
H        3.3687797269   -2.4813598686   -3.2424404873
H        7.4166792180    0.1801964841   -1.5289230035
H        6.8414494232   -0.7746702070   -2.9762364564
H        6.8744097037   -1.4442638721   -1.3411520012
H        2.9485313358    0.6914586143   -0.4767333273
19   

C        5.1706289705    0.5529243457    1.7597198216
C        3.8687233315    0.7939825203    1.4319227944
C        5.0420929564    0.2670736475   -0.3766954571
C        4.2682730954   -0.6372355837   -2.4185950805
C        4.3001341340   -2.1340077009   -2.6821793770
C        6.7241756771   -0.4222365179   -1.9981797599
N        5.8890654456    0.2320236634    0.6185025761
N        3.7695314675    0.6118718603    0.0601207529
N        5.3609683067    0.0182893626   -1.7258755264
O        3.4186085757    0.0309625802   -2.9735878693
H        5.5826773277    0.6080674232    2.7609279457
H        3.0836983446    1.0864119323    2.1197390744
H        4.6723070686   -2.6666649509   -1.8030505965
H        5.0679969184   -2.3273531258   -3.4346078149
H        3.3435106206   -2.4964761742   -3.0678330702
H        7.4501655339    0.2925947162   -1.5967647724
H        6.8799469957   -0.6403282939   -3.0592438827
H        6.9184622546   -1.3419913271   -1.4358733267
H        2.9676715435    0.7383215258   -0.5539760094
19   

C        4.9372425387    2.1303561076   -0.1062188703
C        4.7529511509    1.4230889190    1.0426757636
C        5.1177616214    0.0444428457   -0.6672679184
C        5.7124102520   -0.9309080220   -2.7453680323
C        4.7849382814   -0.2760238467   -3.7589119022
C        5.8038932134   -2.3112598449   -0.6872026248
N        5.1447231080    1.2561636225   -1.1588672636
N        4.8698493444    0.0831812231    0.7014151070
N        5.2667211792   -1.1554139043   -1.3916762686
O        6.8553095542   -1.1594481910   -3.0880408056
H        4.9192111118    3.2113452331   -0.1856795895
H        4.5490906770    1.8461521290    2.0195081615
H        4.5426421706   -1.0271562693   -4.5137626991
H        5.3381519848    0.4616016796   -4.3452949048
H        3.8637156227    0.1006145951   -3.3077329930
H        5.2358467053   -2.5354694318    0.2200966057
H        6.8075276626   -2.0544775199   -0.3300619088
H        5.9173059143   -3.1737687225   -1.3521077085
H        4.7725509658   -0.7280833301    1.3003718939
19   

C        4.8842855990    2.1400432811   -0.0516997283
C        4.7209476988    1.4589159109    1.1153121040
C        5.0646169944    0.0412093625   -0.5683748920
C        5.4870645023   -1.0393651131   -2.6408472350
C        4.5373512199   -0.2743716344   -3.5541807803
C        5.8080089697   -2.3129721323   -0.5409933261
N        5.0794347859    1.2420969563   -1.0865302783
N        4.8413658136    0.1123706569    0.8029666761
N        5.2177708303   -1.1844291132   -1.2487409941
O        6.5081482645   -1.4759734609   -3.1421967057
H        4.8611552733    3.2188449674   -0.1553601917
H        4.5281754876    1.9036315066    2.0847325193
H        4.4243982196   -0.8116878054   -4.4986331428
H        5.0525805403    0.6315048077   -3.8837027066
H        3.5931179681   -0.0200563176   -3.0662524931
H        5.3548864594   -2.4693022449    0.4418316223
H        6.8528011067   -2.0616247676   -0.3269609835
H        5.8344016970   -3.2139523625   -1.1627030515
H        4.7570132511   -0.6854969316    1.4215530769
19   

C        4.8504303985    2.1885595685   -0.0862853286
C        4.6921395717    1.5179412590    1.0869550511
C        5.1004929354    0.0890558059   -0.5739627735
C        5.4538992916   -1.0894995590   -2.6320257115
C        4.5420548399   -0.2483124459   -3.5188766285
C        5.8967068184   -2.2594314693   -0.5023764751
N        5.0873875648    1.2834596455   -1.1060767105
N        4.8598355036    0.1722934860    0.7937533859
N        5.3086192285   -1.1404011529   -1.2294830948
O        6.3332242986   -1.7188285557   -3.2004674808
H        4.7962107429    3.2647533287   -0.2041559142
H        4.4714568355    1.9687762808    2.0475382245
H        4.4060763169   -0.7268498433   -4.4916401550
H        5.0887483096    0.6636756590   -3.7721069984
H        3.6175231166    0.0424677375   -3.0139535051
H        5.5323901449   -2.3390124847    0.5253354871
H        6.9689868568   -2.0565140996   -0.4053107050
H        5.8376545389   -3.1926043355   -1.0722724629
H        4.7923247493   -0.6197298771    1.4218025539
19   

C        4.8596366937    2.0590348936   -0.1107831164
C        4.7269174142    1.4055269223    1.0745879742
C        5.1283740703   -0.0457872463   -0.5702605719
C        5.3302715215   -1.3329061938   -2.6057715207
C        4.4724118352   -0.4167085610   -3.4737291686
C        5.9153236245   -2.4055807102   -0.4669892039
N        5.0930202403    1.1403768801   -1.1191244281
N        4.9092058339    0.0580352450    0.7998014492
N        5.3461698136   -1.2820781450   -1.2054229724
O        6.0058386497   -2.1538158968   -3.2121138834
H        4.7903970103    3.1324747926   -0.2444748011
H        4.5128700231    1.8687706583    2.0307080612
H        4.2724026023   -0.8694609593   -4.4478985117
H        5.0690423748    0.4718388902   -3.6953599046
H        3.5880325682   -0.0559947919   -2.9428513376
H        5.7254765367   -2.3708469206    0.6089059474
H        7.0027569433   -2.3534820665   -0.5898952664
H        5.6674699042   -3.3628188958   -0.9373714914
H        4.8604282620   -0.7246104395    1.4411000479
19   

C        4.8015651323    2.0698704942   -0.0964581813
C        4.7286769070    1.4068983699    1.0881976483
C        5.1710860945   -0.0173801888   -0.5715104615
C        5.2698651203   -1.3650628407   -2.5941668755
C        4.4541175823   -0.4031075568   -3.4541888018
C        6.0243353069   -2.3556196745   -0.4790835480
N        5.0611099655    1.1674781772   -1.1129012630
N        4.9776345052    0.0722779010    0.8036785497
N        5.4409230143   -1.2360574258   -1.2158979676
O        5.7508643486   -2.3138429164   -3.2026253482
H        4.6732796090    3.1385875798   -0.2237949534
H        4.5089816091    1.8552950227    2.0500242217
H        4.2195272836   -0.8339980213   -4.4306654247
H        5.0660029335    0.4851421310   -3.6302128221
H        3.5865807887   -0.0204008446   -2.9112804278
H        5.9665679848   -2.2615996537    0.6083019469
H        7.0847198179   -2.4033671373   -0.7498353320
H        5.6635257905   -3.3157203070   -0.8625805229
H        4.9827630451   -0.7137172927    1.4425387149
19   

C        4.7749749596    2.0764568896   -0.0607910391
C        4.8551156903    1.4146025039    1.1233492088
C        5.3129645443    0.0337188568   -0.5690199481
C        5.3049960859   -1.3859416833   -2.5538607175
C        4.4886617270   -0.4226857689   -3.4123672300
C        6.3139805321   -2.2267924272   -0.4736568191
N        5.0461364521    1.1995897399   -1.0960389867
N        5.2158096466    0.1105462393    0.8172932017
N        5.6548370591   -1.1583545674   -1.2258278946
O        5.6045619103   -2.4281778991   -3.1261852755
H        4.5336175449    3.1269461401   -0.1739971066
H        4.6607725167    1.8440102139    2.0990277624
H        4.2213308542   -0.8596915533   -4.3777401495
H        5.0763429061    0.4853127047   -3.5682795255
H        3.6234384765   -0.0549896963   -2.8557817871
H        5.6700736997   -2.5359349706    0.3548232506
H        7.1687075445   -1.8140991206    0.0722490782
H        6.5943469647   -3.0971365692   -1.0758870320
H        5.3460503208   -0.6678360117    1.4517503839
