16   

C        5.0202478600    1.6401471530    0.1071839861
C        5.3180362680    0.5088485868    0.8043048834
C        3.3530568224    0.2730439071   -0.2439690917
C        2.0817715281   -0.3296392602   -0.7324156873
C        0.4484413431   -2.1483168315   -0.3783324595
N        3.8079575174    1.4804326344   -0.5366910435
N        4.2730226027   -0.3802507984    0.5944220929
N        1.6820491508   -1.4600941398   -0.0278889350
O        1.4027939197    0.0992485113   -1.6584588469
H        5.6395106267    2.5287043543    0.0586346905
H        6.2145055116    0.3527220962    1.3934300567
H        0.2815673920   -2.9939364410    0.2957774326
H        0.5047721019   -2.5284597655   -1.4038525657
H       -0.4041589809   -1.4653028898   -0.2981598517
H        4.2229207127   -1.3464932151    0.9007262357
H        2.1569606664   -1.6884167348    0.8341394210
16   

C        4.9861859259    1.6555187318    0.1830407857
C        5.3487594229    0.4765543661    0.7620564312
C        3.3945584653    0.2445907742   -0.3003654320
C        2.1386443816   -0.3764598304   -0.8111455777
C        0.4182597670   -2.0829145003   -0.3433888085
N        3.7759467857    1.4996846652   -0.4669464992
N        4.3494493423   -0.4407354943    0.4674563961
N        1.6634747682   -1.4061600230   -0.0130035088
O        1.5204514050   -0.0155327488   -1.8059909435
H        5.5583278628    2.5755766478    0.2222543209
H        6.2575177414    0.3089156876    1.3287943027
H        0.1944278603   -2.8501970218    0.4039805957
H        0.4978563821   -2.5663836447   -1.3227992721
H       -0.4097017271   -1.3661429318   -0.3662913841
H        4.3446150648   -1.4356620035    0.6721129846
H        2.0850577441   -1.5385370355    0.8971060882
16   

C        4.9502140528    1.6578513004    0.2657430902
C        5.3902215701    0.4535339470    0.7288998614
C        3.4457440049    0.2042939721   -0.3405223938
C        2.2076256887   -0.4436321883   -0.8725694117
C        0.3995506081   -2.0286111474   -0.3282869284
N        3.7409106592    1.4916661625   -0.3845594771
N        4.4434864188   -0.4912298648    0.3570241556
N        1.6507981480   -1.3610274534   -0.0028496023
O        1.6643692340   -0.1681114124   -1.9359988295
H        5.4670407689    2.6030787712    0.3875659307
H        6.3143513143    0.2887271019    1.2711019974
H        0.1247688300   -2.7264914607    0.4685097626
H        0.5017452855   -2.5925839982   -1.2614654781
H       -0.4046848365   -1.2938313025   -0.4422269962
H        4.4875830803   -1.4991745577    0.4794182584
H        2.0270096138   -1.4126327357    0.9358825931
16   

C        4.8545275914    1.6507164340    0.3420259177
C        5.3947580633    0.4463456588    0.6846910428
C        3.4357236997    0.1489168161   -0.3386515308
C        2.2185095525   -0.5440366870   -0.8785176946
C        0.3433427271   -2.0213268862   -0.2751248629
N        3.6334666034    1.4534098987   -0.2780170278
N        4.5012560090   -0.5299006615    0.2651138452
N        1.5827692643   -1.3330718633    0.0515649966
O        1.7759564974   -0.4091512694   -2.0132885844
H        5.3097511212    2.6170598171    0.5274198393
H        6.3487848509    0.3031588724    1.1791515708
H        0.0234664692   -2.6433901384    0.5664102979
H        0.4858518568   -2.6682442533   -1.1472102766
H       -0.4469957234   -1.2956284978   -0.4947997207
H        4.6096911758   -1.5397577060    0.3090074872
H        1.9042677134   -1.2817789826    1.0111226436
16   

C        4.7886434242    1.6498544786    0.4711232883
C        5.4391555637    0.4656962457    0.6593056993
C        3.4417168515    0.1098057568   -0.2591196885
C        2.2624759378   -0.6234205979   -0.8437305193
C        0.3214996465   -2.0322498869   -0.2965689949
N        3.5462324206    1.4151692403   -0.0926296821
N        4.5935749970   -0.5355404101    0.2010105098
N        1.5021653305   -1.2756062150    0.0902469727
O        2.0410964377   -0.7342338753   -2.0440219032
H        5.1838449873    2.6278515060    0.7216459607
H        6.4335396884    0.3528756721    1.0759148314
H       -0.0944237730   -2.5524515003    0.5717002243
H        0.5779453998   -2.7793211307   -1.0550781308
H       -0.4425789232   -1.3601128898   -0.7013915296
H        4.7767101978   -1.5333236829    0.1315582647
H        1.6964895275   -1.0839256617    1.0666484881
16   

C        4.7727171647    1.6642556097    0.5605657755
C        5.5259012399    0.5273148853    0.5928196389
C        3.4829265686    0.0754595236   -0.1677803410
C        2.3526936735   -0.6885071675   -0.8087449715
C        0.3262435298   -2.0130190531   -0.3508785654
N        3.5081998981    1.3739116539    0.0754409548
N        4.7216674403   -0.5012626520    0.1212275037
N        1.4330520626   -1.1717456771    0.0785593208
O        2.3981726619   -1.1126386175   -1.9582885227
H        5.1139062850    2.6491104162    0.8590003697
H        6.5595170986    0.4640415059    0.9131228367
H       -0.1486460326   -2.4821320711    0.5161859613
H        0.6799574067   -2.8074234650   -1.0164412961
H       -0.4209715157   -1.4115340606   -0.8791559605
H        4.9742925222   -1.4671036999   -0.0736058390
H        1.4716722404   -0.8080940113    1.0246602708
16   

C        4.7297626827    1.6354180963    0.6855153572
C        5.5691679219    0.5677627059    0.5579080911
C        3.5089765870    0.0044672064   -0.0735871949
C        2.4153475424   -0.7846518920   -0.7339572275
C        0.2976873342   -1.9829344523   -0.3348643794
N        3.4558559847    1.2816662283    0.2708790863
N        4.8104368266   -0.4824912652    0.0597739633
N        1.3902791884   -1.1263463176    0.1003718062
O        2.5765249526   -1.3747357813   -1.7973264110
H        5.0176149427    2.6175729871    1.0431689100
H        6.6279322756    0.5651043684    0.7900769684
H       -0.2638929341   -2.3457899923    0.5313392386
H        0.6799170498   -2.8520770692   -0.8803311032
H       -0.3819553270   -1.4236541289   -0.9863464680
H        5.1171028171   -1.4017376911   -0.2507333645
H        1.3513196296   -0.6429557644    0.9918582666
16   

C        4.6986893170    1.5780807073    0.7684727314
C        5.5951044585    0.5841143296    0.5051462999
C        3.5371066733   -0.0768055277   -0.0343336599
C        2.4655950417   -0.8932826960   -0.6819451928
C        0.2638439459   -1.9435648839   -0.3159715649
N        3.4245249438    1.1675542884    0.4095093683
N        4.8737374745   -0.4778922800   -0.0225229503
N        1.3677143191   -1.0938773080    0.1031564785
O        2.6726782114   -1.5929050978   -1.6686625682
H        4.9462083896    2.5490877714    1.1823374226
H        6.6652019912    0.6378361398    0.6691249877
H       -0.3542257768   -2.2100054387    0.5467691643
H        0.6361319907   -2.8699751154   -0.7656450862
H       -0.3586719093   -1.4175558423   -1.0473048349
H        5.2132412580   -1.3526823877   -0.4170789106
H        1.3001835541   -0.5138881622    0.9340179515
16   

C        4.6763924125    1.5234276578    0.8343516575
C        5.6090418113    0.6081803007    0.4423747828
C        3.5610353481   -0.1427786646   -0.0108016826
C        2.5035071606   -0.9922977241   -0.6243145789
C        0.2343890287   -1.9000181482   -0.2871974607
N        3.4060102789    1.0583554817    0.5317606062
N        4.9161666385   -0.4593535609   -0.1115535903
N        1.3555431158   -1.0620168944    0.1079048631
O        2.7267729891   -1.7706118145   -1.5467772100
H        4.8950974263    2.4773250388    1.3008862116
H        6.6829308893    0.7168902038    0.5415905552
H       -0.4231619738   -2.0766053033    0.5694043618
H        0.5852464986   -2.8714552880   -0.6509489125
H       -0.3406730490   -1.4096590483   -1.0795448411
H        5.2754531434   -1.2915856994   -0.5752578586
H        1.2843525460   -0.4070040086    0.8816276149
16   

C        4.6660900686    1.4856447979    0.8907274568
C        5.6129699022    0.6490007630    0.3761321754
C        3.5769968610   -0.1703082301   -0.0072538154
C        2.5293508529   -1.0505446598   -0.5840817702
C        0.2050847859   -1.8263282630   -0.2982715766
N        3.4014719723    0.9772487981    0.6364891848
N        4.9360388062   -0.4116287484   -0.2097358655
N        1.3415912743   -1.0011233169    0.0788877280
O        2.7597399490   -1.8855308590   -1.4538915043
H        4.8702448634    2.4138754602    1.4123769827
H        6.6849442844    0.8038298585    0.4187988957
H       -0.4829540055   -1.9268588987    0.5466266555
H        0.5334416439   -2.8300330327   -0.5880787579
H       -0.3289887022   -1.3702830292   -1.1382720419
H        5.3025841227   -1.2027313845   -0.7359142038
H        1.2753973608   -0.2944796755    0.8071695319
16   

C        4.6710269428    1.4244592660    0.8135022398
C        5.6051639601    0.6301314460    0.2153112279
C        3.5719331028   -0.2383075699   -0.0590719385
C        2.5224963279   -1.1632207415   -0.5525045880
C        0.1494499775   -1.7944140018   -0.2922660618
N        3.4075611273    0.8824392189    0.6328224804
N        4.9213793231   -0.4360196391   -0.3521577140
N        1.3064237372   -0.9701807502    0.0213162391
O        2.7491972698   -2.0807331928   -1.3359333591
H        4.8830186759    2.3444209789    1.3465516902
H        6.6730577216    0.8147302170    0.1937715312
H       -0.4982284582   -1.8808911095    0.5854804795
H        0.4554355516   -2.8049524342   -0.5830418294
H       -0.4199392888   -1.3478307832   -1.1137270937
H        5.2765851324   -1.2160514702   -0.9022927728
H        1.2564592853   -0.1981438617    0.6820899519
16   

C        4.6952778766    1.4614793041    0.8046233144
C        5.6166133000    0.7359332950    0.1074237501
C        3.5961947305   -0.1768895304   -0.1130692496
C        2.5577950162   -1.1330819576   -0.5670933840
C        0.1465699500   -1.6661182641   -0.4126901235
N        3.4404956645    0.8883192009    0.6633734561
N        4.9330740867   -0.3158701521   -0.4864279215
N        1.3119505624   -0.8476541869   -0.1107331554
O        2.8009806168   -2.0931339064   -1.2924757733
H        4.9106426248    2.3528741135    1.3829359455
H        6.6762384289    0.9544382995    0.0411573595
H       -0.4049490159   -1.8854653427    0.5067408130
H        0.4359027952   -2.6212958023   -0.8634243477
H       -0.5121272560   -1.1403786234   -1.1110057169
H        5.2829853945   -1.0639533412   -1.0824889675
H        1.2562558547   -0.0387153676    0.5042486610
16   

C        4.6689113874    1.4313237923    0.8024181630
C        5.5721104443    0.7449483052    0.0444467728
C        3.5596424431   -0.1961683269   -0.1222476130
C        2.5285891396   -1.1854084028   -0.5204617882
C        0.0965376659   -1.6102868283   -0.5654100376
N        3.4205677424    0.8363842567    0.7001405841
N        4.8828188928   -0.3021354084   -0.5511654023
N        1.2586465261   -0.8040161030   -0.2252516832
O        2.7861542830   -2.2109259405   -1.1441266059
H        4.8933413650    2.3079815841    1.3995061441
H        6.6244544031    0.9838989111   -0.0575948683
H       -0.1533253754   -2.2799831021    0.2637551354
H        0.2855118361   -2.2119608949   -1.4607551857
H       -0.7611568732   -0.9630922403   -0.7725428547
H        5.2261204301   -1.0407270821   -1.1626358193
H        1.1752384025    0.0849382896    0.2625615015
16   

C        4.6549739891    1.5239315174    0.8331959213
C        5.5412396843    0.8990577394    0.0052895942
C        3.5629827459   -0.1221022534   -0.0793840855
C        2.5629940109   -1.1690732804   -0.4095087915
C        0.1453279904   -1.6182894790   -0.6065862891
N        3.4304608704    0.8752787027    0.7865086100
N        4.8641929400   -0.1613056824   -0.5809263647
N        1.2717681472   -0.7578005937   -0.2817001897
O        2.8608197410   -2.2400099476   -0.9303202005
H        4.8763504705    2.3920826452    1.4437003382
H        6.5756282606    1.1852873275   -0.1464815188
H       -0.0648917013   -2.2945850701    0.2284253620
H        0.3566296458   -2.2128653832   -1.5016062854
H       -0.7444861249   -1.0132408699   -0.8053419501
H        5.2101268297   -0.8804801281   -1.2135244595
H        1.1440872251    0.1639651413    0.1283812682
16   

C        4.6859597234    1.4894018918    0.8837845608
C        5.5132254283    0.9424520667   -0.0530376301
C        3.5535548279   -0.1174133853   -0.0491424296
C        2.5590459430   -1.1873761687   -0.3365048661
C        0.1574082925   -1.6317645120   -0.6845838153
N        3.4760627884    0.8128176236    0.8941469796
N        4.8115595250   -0.0944852045   -0.6521763662
N        1.2668597236   -0.7527567114   -0.3502165672
O        2.8736454802   -2.2851893753   -0.7863837941
H        4.9399107565    2.3202012808    1.5323890891
H        6.5267310586    1.2622694194   -0.2661633236
H       -0.0980753540   -2.2587895037    0.1759570280
H        0.4148636763   -2.2767740088   -1.5312157836
H       -0.7197789341   -1.0403323700   -0.9640003545
H        5.1272355952   -0.7743791937   -1.3412420823
H        1.1136395299    0.1891984354   -0.0009301988
16   

C        4.7337529111    1.4549381671    0.9497595618
C        5.4795380029    0.9874714152   -0.0924253882
C        3.5484611130   -0.1172586434    0.0247179265
C        2.5552748425   -1.2076892152   -0.2175901739
C        0.1852249850   -1.6695572493   -0.7218512598
N        3.5443931865    0.7478720267    1.0295240666
N        4.7449799263   -0.0285484082   -0.6880690290
N        1.2740826509   -0.7672921664   -0.3805686888
O        2.8848983581   -2.3359101357   -0.5703394284
H        5.0316966967    2.2497725617    1.6242016826
H        6.4630638059    1.3438640729   -0.3762299648
H       -0.1248745997   -2.2358452980    0.1625784698
H        0.4931457882   -2.3710599051   -1.5042318512
H       -0.6717736909   -1.1005633241   -1.0948412157
H        5.0165265466   -0.6658721724   -1.4339080320
H        1.0964248493    0.1978658748   -0.1194436810
16   

C        4.7946654969    1.4075727713    1.0216900006
C        5.4382778313    1.0242443453   -0.1183073284
C        3.5459282549   -0.1260865222    0.1188487462
C        2.5397718985   -1.2212609754   -0.0886865250
C        0.2151520853   -1.6959532763   -0.7598298570
N        3.6298413600    0.6723063237    1.1715854794
N        4.6625866044    0.0330121456   -0.7036327374
N        1.2903313059   -0.7783933421   -0.4148611470
O        2.8647610403   -2.3843387706   -0.3044731129
H        5.1474556012    2.1629257790    1.7147875496
H        6.3835603732    1.4183864274   -0.4732499623
H       -0.1639247917   -2.1871854925    0.1424614056
H        0.5672819771   -2.4600490654   -1.4606895713
H       -0.6060347997   -1.1513752266   -1.2356787926
H        4.8733938013   -0.5513108477   -1.5096103116
H        1.1072228313    0.2091027219   -0.2690712496
16   

C        4.8728792930    1.3131095861    1.0789613740
C        5.3811150348    1.0324571618   -0.1554991064
C        3.5580667180   -0.1884563501    0.2217104678
C        2.5165119499   -1.2627034616    0.0398764768
C        0.2412213604   -1.7171027752   -0.7889939041
N        3.7463317865    0.5402931567    1.3076440882
N        4.5591605189    0.0656707718   -0.7184184331
N        1.3287912553   -0.8083404739   -0.4595645859
O        2.7828741398   -2.4595384270    0.0333023222
H        5.2921023157    2.0252746401    1.7807342935
H        6.2690814961    1.4784406145   -0.5885969952
H       -0.2266490623   -2.0922100153    0.1272940262
H        0.6103883291   -2.5658968023   -1.3741690057
H       -0.5163444717   -1.1977838177   -1.3837963724
H        4.6805631210   -0.4415250524   -1.5917123134
H        1.1843758344    0.1956437746   -0.4606318405
16   

C        4.9088919170    1.2293853878    1.0922195558
C        5.2709048173    1.0536169602   -0.2111846432
C        3.5488199585   -0.2649533940    0.2944957795
C        2.4515522293   -1.2848950335    0.1341041782
C        0.2195615687   -1.6764570428   -0.8232268380
N        3.8334757394    0.4108532980    1.3921617092
N        4.4110108448    0.1022553559   -0.7431709750
N        1.3734538840   -0.8261212921   -0.5750923971
O        2.5324677745   -2.4526362252    0.4971761904
H        5.3906479501    1.9049518115    1.7900341326
H        6.0879667445    1.5606896034   -0.7115630771
H       -0.2840357844   -1.9151713395    0.1195722067
H        0.5287446965   -2.6080882261   -1.3087016328
H       -0.4911513385   -1.1657434029   -1.4801530077
H        4.4283264984   -0.3159996416   -1.6698297167
H        1.3389358956    0.1657172282   -0.7822827974
16   

C        5.0027979096    1.1251511890    1.1192752194
C        5.2175206493    1.0620306724   -0.2259893467
C        3.5691913204   -0.3222545370    0.3569981397
C        2.4314409051   -1.2928350116    0.2278915038
C        0.2355057092   -1.6485402787   -0.8276883373
N        3.9686570098    0.2737745894    1.4658413354
N        4.3069829894    0.1468641908   -0.7367205311
N        1.4489899161   -0.8691132509   -0.6365441346
O        2.3280830421   -2.3443314550    0.8487218999
H        5.5557931555    1.7478649940    1.8134235718
H        5.9710856270    1.6208069089   -0.7691926179
H       -0.3311121298   -1.7038637556    0.1079488293
H        0.4830775151   -2.6638196262   -1.1551868663
H       -0.3952067311   -1.1843735556   -1.5920291867
H        4.2226215743   -0.1866511271   -1.6933537719
H        1.5152203614    0.0751384286   -0.9981293613
16   

C        5.1143283054    1.0741161289    1.1294263630
C        5.2033121026    1.1018766686   -0.2306443060
C        3.5879986625   -0.3018244100    0.4075761471
C        2.4358386728   -1.2509323584    0.3205404692
C        0.3008205014   -1.6882434993   -0.8319929672
N        4.1040013460    0.2101701810    1.5112074467
N        4.2351448475    0.2330377074   -0.7153529528
N        1.5228885528   -0.9171695976   -0.6611770699
O        2.2413631888   -2.2006270032    1.0703225015
H        5.7385563397    1.6418844841    1.8101499603
H        5.9128943030    1.6896436552   -0.8017690951
H       -0.3050269359   -1.6469390977    0.0795623088
H        0.5395643206   -2.7337150937   -1.0540580523
H       -0.2881603562   -1.2848943889   -1.6613514847
H        4.0700370041   -0.0402908454   -1.6801900827
H        1.6295686973   -0.0220937319   -1.1225646951
16   

C        5.1720358515    1.0055679253    1.1436782756
C        5.1603089491    1.1350262386   -0.2127061564
C        3.5382372493   -0.2581225233    0.4426320914
C        2.3686705432   -1.1811280171    0.3785961021
C        0.3147058486   -1.7215089968   -0.8782731571
N        4.1632910409    0.1452717391    1.5358146059
N        4.1267149053    0.3374671858   -0.6843134105
N        1.5305477178   -0.9419754838   -0.7000397653
O        2.1020161028   -2.0492029769    1.2016935200
H        5.8664108146    1.4984174865    1.8147471284
H        5.8475959448    1.7416483657   -0.7913099696
H       -0.3404733022   -1.6086719321   -0.0077478952
H        0.5591424014   -2.7814771935   -1.0049267678
H       -0.2255731660   -1.3824563724   -1.7673885177
H        3.8950500033    0.1354184549   -1.6524529570
H        1.6723613987   -0.0962034045   -1.2368021343
16   

C        5.0834911355    1.3611886093   -0.2698331326
C        5.2529343317    0.4072236037    0.6871300141
C        3.2538098348    0.1682860226   -0.2934775001
C        1.8966973811   -0.3547988696   -0.6143295699
C        0.3674707816   -2.2780470774   -0.3637994732
N        3.8459737994    1.2043607713   -0.8645657948
N        4.0992647707   -0.3645241831    0.6950872060
N        1.6456277818   -1.6279538838   -0.1148627204
O        1.0445631976    0.2366356004   -1.2674757805
H        5.8044398505    2.1298517802   -0.5243257218
H        6.1276233112    0.3004180231    1.3184876381
H        0.3575035914   -3.2774918535    0.0815687433
H        0.1933167097   -2.3747236913   -1.4409147410
H       -0.4470809887   -1.6939276947    0.0774413207
H        3.8648491375   -1.1051550158    1.3481331501
H        2.4153102329   -2.1619297383    0.2635768746
16   

C        5.0683571692    1.6191907534    0.0278796767
C        5.2975945895    0.5658741904    0.8594307855
C        3.3389142602    0.3012334834   -0.1957897220
C        2.0515908334   -0.2837419663   -0.6657058408
C        0.4727365453   -2.1720701559   -0.4434735277
N        3.8600386838    1.4424515585   -0.6179987562
N        4.2104456740   -0.2886077054    0.7374377601
N        1.7083713091   -1.4962943763   -0.0755069432
O        1.3159364195    0.2185217024   -1.5080834572
H        5.7322379500    2.4648088352   -0.1119957045
H        6.1743330291    0.4398790788    1.4843481711
H        0.3892962214   -3.1252131396    0.0874376773
H        0.4557405632   -2.3731758793   -1.5200039547
H       -0.3912371514   -1.5510501180   -0.1835462660
H        4.0844726513   -1.1788047628    1.2060890213
H        2.2945979862   -1.8828253501    0.6487861410
