40

C     -0.51280   -5.78327    2.01595
C      0.71567   -6.45011    2.04515
C     -1.12072   -5.50631    0.78714
C      1.33840   -6.82792    0.85213
C     -0.50040   -5.88624   -0.40492
C      0.73713   -6.54500   -0.37891
C      0.69206   -8.00617   -2.43698
C      1.65921   -5.59097   -2.42349
C      0.96646   -0.55476    0.46674
C      0.82425   -0.35134   -1.04848
C      0.88582   -2.04120    0.84068
C      1.84494   -1.19159   -1.83041
C      1.91129   -2.87434    0.06109
C      1.74632   -2.68010   -1.45536
C      2.76187   -3.48674   -2.25946
C      1.45744   -6.90132   -1.68080
O      0.82374   -9.16600   -2.11709
O      0.92250   -5.17762   -3.31532
O     -0.14424   -7.62165   -3.41700
O      2.68370   -4.90614   -1.92004
H     -0.99377   -5.48309    2.94301
H      1.19266   -6.67372    2.99566
H     -2.07793   -4.99263    0.75596
H      2.29653   -7.33979    0.87780
H     -0.97878   -5.65853   -1.35369
H      0.19444    0.01477    0.99740
H      1.93490   -0.15229    0.79516
H     -0.18904   -0.63994   -1.35938
H      0.94059    0.70822   -1.30391
H      1.04035   -2.17419    1.91751
H     -0.12108   -2.42172    0.62233
H      1.69125   -1.06247   -2.90886
H      2.85895   -0.82892   -1.60831
H      2.92743   -2.56876    0.35136
H      1.81138   -3.93109    0.32292
H      0.74575   -3.03026   -1.74046
H      3.78732   -3.21300   -2.00260
H      2.60911   -3.37214   -3.33473
H      2.43341   -7.31766   -1.43109
H     -0.01742   -6.65588   -3.58610
