29   

C        3.0827047175   -2.8217952626    0.6819691895
C        2.4556912948   -1.6310124142    0.3063232651
C        2.8673751739   -3.3459214663    1.9592468123
C        1.6121833772   -0.9684439258    1.2051945060
C        2.0308415199   -2.6772702780    2.8600208755
C       -0.1577460391   -4.4163160434    5.7023320705
C       -0.0377635927   -5.6847756481    5.1287158496
C       -1.3789157645   -3.6781673428    3.7571553256
C        1.3909331718   -1.4815425091    2.4939293585
C       -0.8177608041   -3.3955090000    5.0108852295
C       -0.5735519165   -5.9593801803    3.8638649510
C       -1.2571981816   -4.9434949074    3.1715092716
C        0.5091501165   -0.7873169015    3.4275816395
C        0.3878060838   -0.8933446838    4.8032310948
O       -2.2147204399   -1.0958467741    5.3467308798
O       -0.6358621255   -1.7070653682    7.1429247691
S       -0.9261336337   -1.7117408648    5.7003690675
Cl      -0.3814036333   -7.5553172724    3.1717071067
Cl      -1.9480786099   -5.2292146658    1.5886835400
H        3.7341603230   -3.3369848491   -0.0152443502
H        2.6234397391   -1.2193599495   -0.6826507310
H        3.3486962383   -4.2719206945    2.2528736309
H        1.1351051119   -0.0447404902    0.8964695955
H        1.8740015157   -3.0979815884    3.8466430849
H        0.2668470878   -4.2216926457    6.6844565233
H        0.4794979638   -6.4709221904    5.6661332761
H       -1.9104919671   -2.9003097222    3.2159661659
H       -0.1567215726   -0.0574474722    2.9776261286
H        1.1756081694   -0.5074041807    5.4304771845
29   

C        2.8590988488   -3.1018710603    0.8812190727
C        2.1717218891   -1.9876131285    0.3940685490
C        2.8006765972   -3.4115596440    2.2421172190
C        1.4214277806   -1.1898076822    1.2652013697
C        2.0565928950   -2.6081296598    3.1130893886
C       -0.0688330393   -4.3959113377    5.5513999477
C        0.1165862894   -5.6109789368    4.8865658360
C       -1.2398889493   -3.5466502437    3.6210022310
C        1.3501342919   -1.4909951026    2.6357523453
C       -0.7338048656   -3.3440527871    4.9132751071
C       -0.3570748838   -5.8005199357    3.5818456531
C       -1.0493385415   -4.7559333420    2.9432812647
C        0.5415697750   -0.6668667387    3.5329816962
C        0.3628656861   -0.7591282830    4.8918645275
O       -2.2272563024   -1.1359437434    5.4094052505
O       -0.6265092193   -1.8002069412    7.1584496119
S       -0.9112073709   -1.7173103522    5.7170195953
Cl      -0.0762984067   -7.3270232070    2.7733965212
Cl      -1.6611622329   -4.9340063083    1.3129147107
H        3.4361486713   -3.7235044822    0.2055815685
H        2.2177131360   -1.7422151643   -0.6610800977
H        3.3314653593   -4.2762489651    2.6239586987
H        0.8911587598   -0.3322840088    0.8658584691
H        2.0251471047   -2.8634923722    4.1657685133
H        0.3117835818   -4.2653246369    6.5616812315
H        0.6393449443   -6.4205058720    5.3821263183
H       -1.7747158041   -2.7452625907    3.1191706934
H        0.0258658878    0.1667514038    3.0667189485
H        0.9931138918   -0.1870362316    5.5544736217
29   

C        2.7120400513   -3.3434096867    1.1798152407
C        1.8927343351   -2.3836190897    0.5806425420
C        2.8500428566   -3.3665590583    2.5695487990
C        1.2056735594   -1.4550917557    1.3707146369
C        2.1641068295   -2.4362429662    3.3579078463
C        0.0649046986   -4.3430074096    5.2749183102
C        0.2755060386   -5.4850220846    4.4977028413
C       -1.2184136929   -3.3827357802    3.4726390632
C        1.3233561206   -1.4752888117    2.7703028578
C       -0.6666420275   -3.2694201901    4.7570597091
C       -0.2374081135   -5.5786688373    3.1975282799
C       -1.0001199498   -4.5158448799    2.6811917231
C        0.5569883417   -0.5315974344    3.5915111066
C        0.3097579057   -0.6052979790    4.9287815607
O       -2.2253327436   -1.1870364181    5.5220832129
O       -0.5132979610   -1.9181661537    7.1198084584
S       -0.8679583327   -1.7244330323    5.7045950168
Cl       0.0841332030   -7.0092532392    2.2423618002
Cl      -1.6615975377   -4.5743662344    1.0616111607
H        3.2391382829   -4.0672970255    0.5682615831
H        1.7849998729   -2.3621183879   -0.4980362141
H        3.4863611844   -4.1084585677    3.0382937535
H        0.5665341230   -0.7246001833    0.8872353841
H        2.2813363959   -2.4697976567    4.4351243273
H        0.4803371446   -4.2839098307    6.2779709212
H        0.8518506431   -6.3097910378    4.8994516320
H       -1.8061071102   -2.5654817886    3.0648743309
H        0.1763067584    0.3500562556    3.0856377043
H        0.7146281332    0.1417767196    5.5935922662
29   

C        2.6383022939   -3.4113016976    1.2928387449
C        1.8111905715   -2.4788528281    0.6619218294
C        2.8051195377   -3.3638803196    2.6789177930
C        1.1445397647   -1.5075751989    1.4172647530
C        2.1382396668   -2.3917098174    3.4325750537
C        0.0749156504   -4.3635848792    5.1654990379
C        0.2886652616   -5.4891613284    4.3660507457
C       -1.2221361518   -3.3755121695    3.3883750871
C        1.2882190430   -1.4597054698    2.8135285382
C       -0.6651228285   -3.2838762819    4.6721011614
C       -0.2293474976   -5.5605699616    3.0667660011
C       -1.0002509767   -4.4921685667    2.5742257064
C        0.5491190935   -0.4630326373    3.6015159598
C        0.1777163589   -0.5370859577    4.9009296734
O       -2.2813190265   -1.3051958697    5.5729199555
O       -0.4672476995   -1.9894258853    7.0582290733
S       -0.8888016516   -1.7705383933    5.6650201126
Cl       0.0950922826   -6.9714567040    2.0837325062
Cl      -1.6694887832   -4.5246750614    0.9571755125
H        3.1496866878   -4.1681458095    0.7084521181
H        1.6819062091   -2.5115559653   -0.4141084380
H        3.4489409024   -4.0832825857    3.1718090660
H        0.4999506268   -0.7976257715    0.9109424509
H        2.2775389910   -2.3676843321    4.5076461575
H        0.4922241254   -4.3230413166    6.1687096571
H        0.8703958877   -6.3184218830    4.7503781014
H       -1.8184249087   -2.5550925962    3.0003656611
H        0.3117611382    0.4650480199    3.0911465643
H        0.3754774974    0.3024192771    5.5495024753
29   

C        3.1676534583   -3.5334471689    1.9163652911
C        2.1351481316   -3.0602635386    1.1019284628
C        3.3175317954   -3.0282846907    3.2105786625
C        1.2538682198   -2.0843778994    1.5812721281
C        2.4326622827   -2.0566354132    3.6904276009
C        0.1842516218   -4.2671249844    4.4960804105
C        0.0636598019   -5.2718860381    3.5353397532
C       -1.7897346008   -3.2031796334    3.6097798549
C        1.3863902772   -1.5765131221    2.8832335265
C       -0.7305670778   -3.2087664145    4.5275260052
C       -0.9714939317   -5.2471563651    2.5941901641
C       -1.9149864793   -4.2036179934    2.6368366813
C        0.4412454624   -0.5694488990    3.3935683275
C        0.0186328725   -0.4506164304    4.6670491825
O       -1.7868689439   -1.4782327518    6.3419818368
O        0.5429033735   -2.1440256742    6.6846086589
S       -0.5093428163   -1.8299401467    5.7032337407
Cl      -1.0656377666   -6.5071853598    1.3833769685
Cl      -3.2294615114   -4.1239165110    1.4840719620
H        3.8518789879   -4.2879169811    1.5442486311
H        2.0152301779   -3.4510042406    0.0976567272
H        4.1200736942   -3.3872596241    3.8452894939
H        0.4535519931   -1.7334834816    0.9392864503
H        2.5618503800   -1.6742659767    4.6983302217
H        1.0067321097   -4.2957325959    5.2064222051
H        0.7894573991   -6.0757926476    3.5080153961
H       -2.5197421593   -2.3994800838    3.6348190733
H        0.0786711186    0.1633539259    2.6798959166
H       -0.2215874109    0.5206651212    5.0713907789
29   

C        3.1551143987   -3.5512164279    1.9809263287
C        2.1284405959   -3.0786029953    1.1586953704
C        3.3188459180   -3.0182520667    3.2623925802
C        1.2672608049   -2.0753415292    1.6175746675
C        2.4533999737   -2.0195469316    3.7218772122
C        0.1933156873   -4.2720044549    4.4212798197
C        0.0500204809   -5.2761051692    3.4631441690
C       -1.7967688829   -3.2031872359    3.5784985337
C        1.4135482124   -1.5401628956    2.9068730432
C       -0.7192069755   -3.2124674305    4.4743682424
C       -1.0055596330   -5.2492262439    2.5451855867
C       -1.9451864972   -4.2031692656    2.6081457400
C        0.4914195913   -0.4965766593    3.3940130478
C       -0.0667401049   -0.4280106557    4.6129763685
O       -1.7228731337   -1.5482879450    6.3760140132
O        0.6447351166   -2.1316462185    6.5668173922
S       -0.4748764917   -1.8412608197    5.6546260127
Cl      -1.1298655044   -6.5100416548    1.3378929131
Cl      -3.2846558732   -4.1209206325    1.4846988865
H        3.8242432900   -4.3265508423    1.6246087145
H        1.9975610773   -3.4905682466    0.1643265043
H        4.1169882805   -3.3762573562    3.9031944922
H        0.4714673374   -1.7236025060    0.9704270678
H        2.5929360183   -1.6145783711    4.7195847798
H        1.0308200414   -4.3028964703    5.1137459652
H        0.7733885448   -6.0815189236    3.4203935573
H       -2.5245550418   -2.3982641273    3.6195216547
H        0.2407933027    0.2911455684    2.6908101434
H       -0.4494939477    0.5116048291    4.9809170997
29   

C        3.1275707788   -3.5690435874    2.0181381392
C        2.1015567986   -3.0810776045    1.2039932814
C        3.3176079649   -3.0296243329    3.2934460515
C        1.2679268760   -2.0557088361    1.6647019623
C        2.4790449952   -2.0088860712    3.7547757361
C        0.2037229520   -4.2808628996    4.4061151099
C        0.0622475970   -5.2909255046    3.4539552574
C       -1.7950327509   -3.2273257835    3.5650717325
C        1.4412729649   -1.5138681593    2.9476182170
C       -0.7149043063   -3.2266637455    4.4578237097
C       -0.9970594683   -5.2748656746    2.5400536339
C       -1.9417387532   -4.2332619626    2.6006270708
C        0.5488647022   -0.4412576017    3.4356859218
C       -0.1477296657   -0.4286973687    4.5801756972
O       -1.7123648172   -1.5977882611    6.3909871342
O        0.6770389786   -2.1087506966    6.5122638400
S       -0.4769931785   -1.8506471920    5.6335721607
Cl      -1.1197409381   -6.5434325373    1.3407300478
Cl      -3.2859651973   -4.1642996240    1.4819364500
H        3.7756170317   -4.3613887544    1.6603108542
H        1.9497914814   -3.4979630135    0.2146548702
H        4.1151144067   -3.3997895442    3.9280783910
H        0.4723671499   -1.6907528597    1.0245989109
H        2.6371979093   -1.5986823775    4.7475620093
H        1.0439199516   -4.3033924463    5.0955968193
H        0.7897304162   -6.0926864366    3.4129586064
H       -2.5268591242   -2.4260504260    3.6041078608
H        0.4154327141    0.4061039501    2.7708506831
H       -0.6436441641    0.4749337902    4.9001006809
29   

C        1.9929494343   -3.0252091331    0.8731625022
C        1.0931187584   -1.9558441109    0.8726468860
C        2.7099107581   -3.3288171679    2.0337751637
C        0.9060613992   -1.1967804945    2.0332324186
C        2.5258443570   -2.5648021942    3.1917467550
C       -0.2611917241   -3.9911360807    5.4253912718
C        0.1592825290   -5.2871389983    5.1152567376
C       -0.9294667133   -3.6838775437    3.1295097791
C        1.6157291648   -1.4970033359    3.2072990660
C       -0.7924957620   -3.1691193512    4.4270578061
C        0.0484645499   -5.7902070267    3.8127784054
C       -0.5110381772   -4.9802648391    2.8086189304
C        1.4060280251   -0.7056417971    4.4417799888
C        0.2770703249   -0.6177839738    5.1553639018
O       -1.9174146031   -0.8275143310    3.6143769605
O       -2.1290480422   -1.3929741767    5.9856426820
S       -1.2765517802   -1.4461422823    4.7877277856
Cl       0.6084505891   -7.4105949388    3.4612413514
Cl      -0.6806486284   -5.5581476973    1.1647355952
H        2.1322370001   -3.6191960643   -0.0233483564
H        0.5353372604   -1.7155321537   -0.0256370802
H        3.4058025533   -4.1601515783    2.0374969603
H        0.2001063684   -0.3718994248    2.0222295366
H        3.0830188936   -2.8146310247    4.0875913593
H       -0.1653992273   -3.6185480242    6.4415551822
H        0.5815561935   -5.9155656259    5.8902906270
H       -1.3527782606   -3.0623502876    2.3454089374
H        2.2841203647   -0.2118203315    4.8453237503
H        0.2489749159   -0.0137698645    6.0492733758
29   

C        2.0058642549   -3.0173964991    0.8419778034
C        1.0975214117   -1.9562431030    0.8807590254
C        2.7354064960   -3.3488506080    1.9869323756
C        0.9136231635   -1.2340994718    2.0649792853
C        2.5541726811   -2.6220887348    3.1691678383
C       -0.2803927880   -3.9695845739    5.4410524830
C        0.1474823913   -5.2670960607    5.1477139577
C       -0.9390215959   -3.6917454905    3.1385415325
C        1.6336162947   -1.5642902764    3.2254498053
C       -0.8098095992   -3.1612050566    4.4306055873
C        0.0462052558   -5.7851263991    3.8502994149
C       -0.5121516496   -4.9893095072    2.8342857252
C        1.4256990953   -0.8172853644    4.4828525855
C        0.2570139186   -0.5880982184    5.0975551352
O       -1.9577067447   -0.8389868767    3.5931110785
O       -2.1332707793   -1.3617555597    5.9757348761
S       -1.2969987932   -1.4340557103    4.7674585603
Cl       0.6168232033   -7.4061873190    3.5195945145
Cl      -0.6688983352   -5.5856085527    1.1957563413
H        2.1428627039   -3.5826639418   -0.0732562087
H        0.5310593022   -1.6929964793   -0.0056119511
H        3.4390698888   -4.1731775362    1.9595143461
H        0.2028465691   -0.4135213768    2.0812695210
H        3.1216052512   -2.8949383736    4.0517366022
H       -0.1910959666   -3.5848009983    6.4532928425
H        0.5687444136   -5.8848162283    5.9318556084
H       -1.3611677520   -3.0812353654    2.3451792654
H        2.3212953520   -0.4531524993    4.9758535559
H        0.2095904580    0.1021358371    5.9258478691
29   

C        2.0454107726   -3.0038595575    0.8246832286
C        1.1179246119   -1.9605967567    0.8843966328
C        2.7789450771   -3.3465213493    1.9637105531
C        0.9186767411   -1.2678529133    2.0834560734
C        2.5821097774   -2.6495486748    3.1613514507
C       -0.2970626450   -3.9445761648    5.4543961664
C        0.1417094151   -5.2390977548    5.1638127706
C       -0.9605236057   -3.6784274675    3.1517649436
C        1.6419007246   -1.6102842881    3.2391436890
C       -0.8334332834   -3.1430314616    4.4421134417
C        0.0447855396   -5.7607906913    3.8674847553
C       -0.5216149557   -4.9724863543    2.8500796215
C        1.4140846867   -0.9000541771    4.5103590949
C        0.2256777130   -0.5425296280    5.0241797964
O       -2.0413550307   -0.8477050843    3.6165108771
O       -2.1177148978   -1.3336656547    6.0120098315
S       -1.3288064744   -1.4169174453    4.7729807657
Cl       0.6309743179   -7.3768870361    3.5397635853
Cl      -0.6725199386   -5.5731198182    1.2126195114
H        2.1945102414   -3.5462222432   -0.1024380189
H        0.5486922665   -1.6883466511    0.0025196979
H        3.4979624902   -4.1567565667    1.9195948718
H        0.1930959857   -0.4607569796    2.1143048438
H        3.1529992972   -2.9324832764    4.0384749239
H       -0.2103393299   -3.5563298746    6.4656018169
H        0.5687752992   -5.8513875750    5.9490728323
H       -1.3888447695   -3.0737949889    2.3571807945
H        2.2985533212   -0.6430902239    5.0842742592
H        0.1707692981    0.2408683265    5.7644216968
29   

C        2.1004490338   -3.0168034132    0.8191622433
C        1.1511898421   -1.9935908835    0.8806715282
C        2.8271131266   -3.3591183286    1.9626353353
C        0.9235480998   -1.3204630158    2.0857375417
C        2.6015243575   -2.6822730594    3.1667824370
C       -0.3173996047   -3.9387871380    5.4486801526
C        0.1291751949   -5.2253714740    5.1359254209
C       -1.0182682083   -3.6513002571    3.1595530885
C        1.6397857365   -1.6628277964    3.2464335943
C       -0.8752061238   -3.1298663357    4.4538747198
C        0.0191232013   -5.7316866840    3.8345613742
C       -0.5704291002   -4.9368819626    2.8354436774
C        1.3773105948   -0.9788394459    4.5233383938
C        0.1853130969   -0.5072739618    4.9364785143
O       -2.1748750232   -0.8581569492    3.7068381579
O       -2.0681478188   -1.3279582164    6.1051947995
S       -1.3724491886   -1.4097516955    4.8113919302
Cl       0.6184254813   -7.3367781715    3.4778693244
Cl      -0.7375917736   -5.5181454290    1.1926377606
H        2.2717668903   -3.5438063506   -0.1129600568
H        0.5871951329   -1.7220518587   -0.0047710029
H        3.5631982054   -4.1537795523    1.9167902188
H        0.1804287408   -0.5295660937    2.1172262455
H        3.1674193916   -2.9662014589    4.0467857716
H       -0.2192941138   -3.5615992009    6.4631338177
H        0.5735404725   -5.8429845314    5.9073030359
H       -1.4642979242   -3.0412622349    2.3789588678
H        2.2311490336   -0.8112291253    5.1717999997
H        0.1350007366    0.3730710749    5.5585663707
29   

C        2.2159794201   -3.0960854243    0.8618808261
C        1.2201646556   -2.1165831389    0.8824397511
C        2.9349193939   -3.3793505851    2.0261232678
C        0.9388714312   -1.4281524766    2.0673516322
C        2.6543611038   -2.6882189791    3.2104873961
C       -0.2940539493   -3.9445773107    5.4073757414
C        0.1525176090   -5.2094921538    5.0174038168
C       -1.1472628698   -3.5834630836    3.1810126895
C        1.6462131362   -1.7119363057    3.2490636939
C       -0.9270378845   -3.1086886038    4.4819900973
C       -0.0313517013   -5.6672620572    3.7066263929
C       -0.6984056173   -4.8469195299    2.7790852316
C        1.3243839411   -1.0170007913    4.5043598840
C        0.1282838398   -0.4729685229    4.8271813230
O       -2.3860006003   -0.8648601239    3.9773413587
O       -1.8971342933   -1.3594630698    6.3247348510
S       -1.4112127850   -1.4088173065    4.9367836589
Cl       0.5745724669   -7.2440764717    3.2493382196
Cl      -0.9582615122   -5.3679202819    1.1282653565
H        2.4296019615   -3.6344759489   -0.0548628513
H        0.6620581326   -1.8915420512   -0.0195578385
H        3.7080753329   -4.1392293278    2.0116401506
H        0.1606769007   -0.6716013449    2.0670721527
H        3.2155750829   -2.9270467656    4.1067139028
H       -0.1357937413   -3.6033039998    6.4271004698
H        0.6562856171   -5.8467556528    5.7343805669
H       -1.6530826159   -2.9524101771    2.4556208320
H        2.1360053534   -0.8841837605    5.2123530056
H        0.0776237467    0.5152075502    5.2575481354
29   

C        2.6769516643   -3.3423012712    1.2095417940
C        1.4367137184   -2.7072620116    1.1136459362
C        3.4648360818   -3.1557129301    2.3481353047
C        0.9840417463   -1.8921508965    2.1566454579
C        3.0073307337   -2.3449896674    3.3934436410
C       -0.1473048305   -3.9494780446    4.9855037875
C        0.1562914464   -5.1446146657    4.3320076899
C       -1.7287849448   -3.4167028442    3.2438785183
C        1.7560300269   -1.7111318615    3.3170730880
C       -1.0746675549   -3.0604203177    4.4313774727
C       -0.4659171833   -5.4830361668    3.1249718599
C       -1.4286411407   -4.6132580356    2.5794601445
C        1.2673555624   -0.8976570741    4.4350585254
C        0.0007845896   -0.4420834512    4.6481393599
O       -2.6472965852   -0.8558690860    4.7481415882
O       -1.3129640447   -1.5648054311    6.6815699931
S       -1.3825302856   -1.4441575034    5.2166551981
Cl      -0.0303252608   -6.9743860177    2.3196043395
Cl      -2.2405179404   -4.9904758397    1.0758127143
H        3.0269958922   -3.9755222024    0.4017954021
H        0.8223693058   -2.8475365340    0.2312589494
H        4.4307099120   -3.6426704827    2.4223957832
H        0.0209623344   -1.4034671115    2.0621933842
H        3.6298219774   -2.2185272869    4.2722213378
H        0.3543542465   -3.6998269045    5.9168012204
H        0.8921654841   -5.8169380966    4.7567560791
H       -2.4689964626   -2.7470143239    2.8145654469
H        2.0120104639   -0.5756524131    5.1559962754
H       -0.2001968859    0.6177678106    4.6288794111
29   

C        3.0106098775   -3.2112026795    1.1642686765
C        1.6684284034   -2.8281286322    1.1084069556
C        3.7865684153   -2.8578721547    2.2710477735
C        1.1046979818   -2.0933534650    2.1570351618
C        3.2185882649   -2.1300532422    3.3230280701
C       -0.2837916652   -3.9985079616    4.9701364232
C       -0.1003240001   -5.2144148619    4.3105051698
C       -1.9591200173   -3.3868321825    3.3459314464
C        1.8688635228   -1.7415967136    3.2828036226
C       -1.2007498423   -3.0626486239    4.4792520213
C       -0.8324446188   -5.5261973082    3.1592916968
C       -1.7799080695   -4.6043589864    2.6756111265
C        1.2769913305   -1.0028857039    4.3975854594
C       -0.0020855130   -0.5246148487    4.5430945662
O       -2.6424675649   -0.7913247217    4.9279900609
O       -1.1428570910   -1.5483857917    6.7284071282
S       -1.3654795570   -1.4326158144    5.2783610517
Cl      -0.5520609070   -7.0505776114    2.3465873896
Cl      -2.7258151819   -4.9465763245    1.2435777707
H        3.4485162836   -3.7786971867    0.3505345558
H        1.0618543950   -3.0998955780    0.2516985533
H        4.8300764529   -3.1491088389    2.3150472190
H        0.0634004521   -1.8006215631    2.0918683944
H        3.8368558279   -1.8688779914    4.1747701773
H        0.2999710852   -3.7726738694    5.8589017619
H        0.6248557819   -5.9257147279    4.6879877627
H       -2.6910839010   -2.6788615136    2.9663926890
H        1.9466461669   -0.7687159819    5.2190454775
H       -0.2404911080    0.4817946180    4.2367327295
29   

C        3.4365494201   -2.9928042007    1.0959570459
C        2.0396925303   -2.9561540551    1.1021443332
C        4.1498836478   -2.4219741685    2.1532259292
C        1.3587970650   -2.3449667878    2.1608931156
C        3.4670167114   -1.8190205069    3.2157411720
C       -0.4924775684   -4.1049135919    4.9853547738
C       -0.4781490437   -5.3502584902    4.3554554640
C       -2.1911710706   -3.3611431190    3.4421968044
C        2.0632571542   -1.7704198418    3.2319095748
C       -1.3390597997   -3.0920180390    4.5221492927
C       -1.3103767801   -5.6133116149    3.2612298578
C       -2.1821900916   -4.6078713273    2.8023949336
C        1.3546585436   -1.1353721192    4.3402092845
C        0.0527815110   -0.6746322947    4.4313703258
O       -2.5565963681   -0.7083192800    5.0328805409
O       -0.9771577515   -1.5576865803    6.7277625922
S       -1.3104751745   -1.4436780373    5.2988724073
Cl      -1.2485626763   -7.1827868881    2.4891516430
Cl      -3.2480239266   -4.8858729157    1.4422985410
H        3.9649963734   -3.4610331068    0.2728637724
H        1.4818954042   -3.4003258332    0.2852705617
H        5.2339431487   -2.4440174198    2.1491759187
H        0.2751171711   -2.3242936342    2.1487264432
H        4.0373182406   -1.3780764976    4.0259638483
H        0.1622242365   -3.9208018995    5.8336401573
H        0.1884841276   -6.1256848606    4.7145724562
H       -2.8694338919   -2.5905755835    3.0850986749
H        1.9435370879   -0.9851021538    5.2396589849
H       -0.2252292136    0.2108036080    3.8819051721
