37

C     -3.59543   -2.41825   -0.88795
C     -2.24936   -3.27984    0.86219
C     -3.49230   -3.27088    0.21388
C     -2.52147   -1.60915   -1.27177
C     -1.32347   -1.66748   -0.52042
C     -1.51360   -3.63910   -3.73001
C     -0.69826   -3.06744   -4.86967
C      1.21251   -1.32626   -0.29120
C      0.97207   -1.42518   -1.77886
C     -1.87074   -2.30131   -4.31613
C     -0.09860   -0.82679   -0.82844
C     -4.64033   -4.12472    0.68613
C     -0.27024    0.69007   -0.83881
C     -2.68199   -0.74064   -2.49056
N     -1.21183   -2.51401    0.51166
N     -1.61529   -1.06268   -3.53281
H     -4.52263   -2.38766   -1.45774
H     -2.08284   -3.94208    1.71099
H     -2.19923   -4.45499   -3.93188
H     -1.06424   -3.66716   -2.74388
H      0.30185   -2.70963   -4.64158
H     -0.80910   -3.48459   -5.86481
H      1.19316   -2.24712    0.27772
H      1.92200   -0.58224    0.05506
H      1.52133   -0.74849   -2.43128
H      0.83672   -2.43269   -2.16569
H     -2.77394   -2.20001   -4.90867
H     -5.25103   -4.47439   -0.15094
H     -4.28498   -4.99808    1.23859
H     -5.29403   -3.55431    1.35537
H      0.70730    1.17793   -0.87325
H     -0.77395    1.01916    0.07477
H     -0.83919    1.07807   -1.69042
H     -3.64672   -0.90447   -2.97257
H     -2.58728    0.32323   -2.27175
H     -0.71044   -1.13201   -3.02959
H     -1.52223   -0.27618   -4.18588
