36

C     -0.92902    0.78328   -0.93017
C     -1.92680    0.95944   -1.60472
C      1.42450    0.08762   -0.70435
C      0.22801    0.86316    1.24318
C      0.23832    0.57806   -0.13119
C      2.57423   -0.11194    0.06203
C      1.36228    0.67162    2.03730
C      2.54480    0.17966    1.44500
C      4.71446    1.18917    2.19267
C     -2.93761    1.71379   -3.84040
C     -3.32834    0.27361   -3.64289
C     -3.09430    1.16335   -2.42496
C      3.81836   -0.65284   -0.60948
C      0.87677   -0.31361    4.32523
C      3.80653   -0.02430    2.27697
C      1.24637    0.94882    3.52408
O      5.62943    1.34051    1.40678
O      4.38205    2.14424    3.10449
H      1.44087   -0.13697   -1.76718
H     -0.68500    1.24146    1.69538
H     -1.92696    1.92837   -4.17144
H     -3.69304    2.41436   -4.18369
H     -4.35329   -0.01936   -3.85020
H     -2.58316   -0.48980   -3.84042
H     -3.98549    1.47913   -1.88822
H      4.68237   -0.00116   -0.45691
H      4.08461   -1.64147   -0.21513
H      3.65675   -0.76370   -1.68454
H     -0.07869   -0.72359    3.98242
H      0.78971   -0.08706    5.39347
H      1.62979   -1.10022    4.20709
H      4.37960   -0.87484    1.90687
H      3.56098   -0.20800    3.32276
H      2.16909    1.38439    3.91346
H      0.46766    1.70296    3.67908
H      4.98382    2.89683    2.94303
