49

C      2.09244   -0.27396    0.23603
C      0.26101   -1.50319   -2.36991
C     -0.73261   -0.63936    1.85874
C     -0.15901    1.04103    0.40039
C     -0.14482   -1.36187    0.64866
C      0.59323   -0.23095   -0.13777
C      4.52897    1.04185    1.44905
C      3.29530    0.49702    3.58004
C      4.14167   -1.38358    2.12937
C      1.28972   -4.12225   -3.43833
C      0.62316   -4.88907   -1.13028
C     -1.16295   -4.13290   -2.74412
C      3.60333    0.04786    2.15222
C      0.28809   -3.95957   -2.29539
N      0.45993   -0.33984   -1.60799
O      2.95025   -0.61430   -0.54865
O     -0.07594   -1.42184   -3.54865
O      2.15642    0.46944   -3.43637
O      1.31567    2.07288   -1.66649
O     -1.16657    0.59467    1.31795
O     -0.19618    1.32589   -3.46352
O      2.26104    0.08337    1.51192
O      0.46723   -2.61106   -1.67974
F      0.69633   -2.39583    1.04814
S      1.10522    0.96510   -2.57548
H     -1.59730   -1.15901    2.27668
H      0.03614   -0.51365    2.63115
H      0.54280    1.71255    0.89766
H     -0.66623    1.57620   -0.39764
H     -0.93585   -1.79045    0.03497
H      4.75666    0.72596    0.43078
H      4.06993    2.03458    1.41677
H      5.46581    1.11693    2.01054
H      2.59766   -0.19472    4.06154
H      2.85226    1.49716    3.58349
H      4.21701    0.52408    4.16831
H      3.40755   -2.07354    2.55593
H      4.38060   -1.70492    1.11531
H      5.05233   -1.43200    2.73496
H      1.05725   -3.46124   -4.27353
H      2.30298   -3.90709   -3.08739
H      1.26052   -5.15806   -3.79112
H     -0.06582   -4.73426   -0.29596
H      1.63895   -4.70448   -0.77221
H      0.54813   -5.92934   -1.45989
H     -1.84885   -3.93430   -1.91413
H     -1.40869   -3.47341   -3.57691
H     -1.31422   -5.16855   -3.06406
H     -0.41764    0.49512   -3.95459
