29   

C        1.1737982651   -1.0437485286    0.1871713802
C        1.5359112473   -2.1914461393    0.8948168109
C        1.0123730916    0.1668156525    0.8650481929
C        1.7281444813   -2.1279507343    2.2791409228
C        1.1999703762    0.2265162673    2.2513325638
C        1.9414835559   -0.1054428497    6.4290085145
C        2.8856802071   -1.1619374312    6.1909921802
C        1.5456122464   -0.9251811449    2.9872827777
C        1.2015942392    0.0118984549    5.2870464126
C       -0.0428085619    0.8342774760    5.2069153462
C       -2.2483047659    1.4706752728    4.3055564797
C       -1.4021904324   -0.8423459059    3.9394460222
N        2.7132792883   -1.6383645401    4.9856188736
N        1.7321341875   -0.8968843487    4.3879068174
N       -1.1475090971    0.5180667694    4.4048391965
O       -0.1681579353    1.7764317741    5.9949470229
H        1.0273431312   -1.0912701246   -0.8863073015
H        1.6710739560   -3.1326099480    0.3731769036
H        0.7473604146    1.0634751951    0.3157489634
H        2.0128793665   -3.0249847608    2.8186519432
H        1.0893114861    1.1820927507    2.7500056776
H        1.7921686476    0.4341108667    7.3573223950
H        3.6072068357   -1.5313178283    6.9105755197
H       -2.8542463935    1.2625830733    3.4180013061
H       -1.8642387203    2.4917516697    4.2092815335
H       -2.8834980754    1.4111975838    5.1949677189
H       -2.4547160610   -1.0996474285    4.0952271077
H       -0.8153880691   -1.5753546965    4.5011126881
H       -1.1801722077   -0.9364361129    2.8722911523
29   

C        1.1639812944   -1.0078252140    0.1712672464
C        1.5425465760   -2.1529869220    0.8740755833
C        0.9909030731    0.1983541157    0.8535093994
C        1.7384982494   -2.0916236387    2.2580397138
C        1.1827909202    0.2561205074    2.2391269922
C        1.8416459509   -0.1680483372    6.4564792392
C        2.7891414715   -1.2226988510    6.2199866307
C        1.5438129448   -0.8935882960    2.9715873732
C        1.1649125257    0.0005662406    5.2839304068
C       -0.0354678080    0.8745839356    5.1241344206
C       -2.2579306512    1.4497839255    4.2111460173
C       -1.4207529870   -0.8932221377    4.0188930005
N        2.6758024837   -1.6443263955    4.9867832558
N        1.7287160745   -0.8712500517    4.3734629259
N       -1.1704989544    0.4950801160    4.3962590863
O       -0.0809562703    1.9386467130    5.7490483772
H        1.0139793311   -1.0535307062   -0.9017872976
H        1.6868924592   -3.0908103308    0.3489430047
H        0.7139220316    1.0938471320    0.3081846670
H        2.0343117897   -2.9879792757    2.7926105676
H        1.0657594813    1.2113852628    2.7366745447
H        1.6596010131    0.3468777009    7.3926199077
H        3.4730441854   -1.6274105294    6.9570967458
H       -2.8671893297    1.1699748095    3.3458413404
H       -1.8622158271    2.4531827852    4.0217585577
H       -2.8932240641    1.4787576380    5.1018624567
H       -2.4748408283   -1.1408405910    4.1795262122
H       -0.8382300612   -1.5873144574    4.6324331496
H       -1.1841983199   -1.0557139642    2.9629565179
29   

C        1.1454396592   -0.9761084753    0.1833819008
C        1.5224091726   -2.1164208771    0.8945812027
C        0.9904978675    0.2385448663    0.8541970137
C        1.7331762953   -2.0420005657    2.2758402953
C        1.1983816274    0.3098660317    2.2366715639
C        1.7945380861   -0.1589823002    6.4883439924
C        2.7295550304   -1.2269339462    6.2587785354
C        1.5558640715   -0.8350581743    2.9794748368
C        1.1735022961    0.0527941478    5.2934849039
C        0.0269390464    0.9823926843    5.0549213552
C       -2.2091819873    1.5285854345    4.1407071835
C       -1.4301031365   -0.8460124726    4.1711767958
N        2.6590763158   -1.6105015634    5.0094419246
N        1.7509629454   -0.8029417044    4.3808963546
N       -1.1522616996    0.5645676833    4.4265693233
O        0.0913661450    2.1411820182    5.4759504359
H        0.9830698840   -1.0318072688   -0.8873778073
H        1.6534534312   -3.0608744451    0.3779835377
H        0.7158576637    1.1308881168    0.3025120951
H        2.0261612402   -2.9359803760    2.8158030046
H        1.0991392109    1.2745790122    2.7194935643
H        1.5941957465    0.3433787484    7.4272612103
H        3.3766968533   -1.6651671650    7.0097807462
H       -2.7899702456    1.2059506852    3.2707494424
H       -1.7892464335    2.5115838714    3.9033241563
H       -2.8774637588    1.6249446604    5.0018820606
H       -2.4922346942   -1.0552718916    4.3331886027
H       -0.8722259167   -1.4944522222    4.8540463880
H       -1.1773404591   -1.1069125484    3.1388300870
29   

C        1.1773524085   -0.9942792322    0.1561689087
C        1.5429846333   -2.1489178563    0.8496021995
C        1.0553292332    0.2153015007    0.8422298024
C        1.7733619548   -2.0939881114    2.2287062941
C        1.2841490129    0.2676048980    2.2221333475
C        1.8058580579   -0.3615960589    6.4940791049
C        2.7304972935   -1.4334898705    6.2402743206
C        1.6279852868   -0.8922534699    2.9491126974
C        1.2447127771   -0.0707515946    5.2871170736
C        0.1549721515    0.9173344362    5.0037230148
C       -2.0969040837    1.4841230301    4.1209597797
C       -1.3954605578   -0.9088400044    4.3140714553
N        2.7070725853   -1.7418732377    4.9681320444
N        1.8384089579   -0.8837426295    4.3497872294
N       -1.0736386318    0.5060141054    4.4754376008
O        0.3357994361    2.1149169581    5.2399922055
H        0.9987986425   -1.0347911833   -0.9126721716
H        1.6494763703   -3.0897012960    0.3208719179
H        0.7906642179    1.1191494989    0.3045605517
H        2.0559359120   -3.0001410165    2.7535900841
H        1.2142881533    1.2314855788    2.7116495959
H        1.5832807119    0.0972116914    7.4498650011
H        3.3393784305   -1.9260977628    6.9895687962
H       -2.6219222338    1.1652857987    3.2149380380
H       -1.6587489553    2.4649199035    3.9101674217
H       -2.8193019712    1.5880596748    4.9362262365
H       -2.4677680923   -1.0714395600    4.4617544008
H       -0.8750598844   -1.5242426669    5.0548567374
H       -1.1250612574   -1.2500906583    3.3098400576
29   

C        1.2177390718   -1.0011180574    0.1140948118
C        1.5974245032   -2.1461449753    0.8153675617
C        1.0793046427    0.2107772402    0.7924963120
C        1.8245840837   -2.0794185075    2.1944731871
C        1.3056504963    0.2749935259    2.1723269482
C        1.7024428545   -0.4469913951    6.4753090530
C        2.6633427159   -1.4867531083    6.2237939035
C        1.6627190371   -0.8753071729    2.9084394480
C        1.2135677790   -0.1039027503    5.2510641705
C        0.1515225683    0.9037023445    4.9194406818
C       -2.1453015100    1.4453095192    4.1289282082
C       -1.4526428095   -0.9386732635    4.4723919124
N        2.7232221158   -1.7279312167    4.9383512150
N        1.8712832429   -0.8589279695    4.3103314219
N       -1.1158569573    0.4813457702    4.5072318316
O        0.4045305853    2.1100874189    4.9669861610
H        1.0413694619   -1.0505272894   -0.9547028621
H        1.7172151503   -3.0887669752    0.2928550610
H        0.8045164304    1.1081298049    0.2490847230
H        2.1176549888   -2.9794586279    2.7239469009
H        1.2265165609    1.2431552895    2.6510648124
H        1.4210914297   -0.0359011098    7.4371091116
H        3.2392163130   -2.0045631727    6.9821312425
H       -2.2405314384    1.4803029387    3.0391708730
H       -1.9135923783    2.4523817634    4.4893429515
H       -3.1088363790    1.1612813381    4.5632239199
H       -2.5330880614   -1.0797647162    4.5749638981
H       -0.9785373353   -1.4790553289    5.2979901077
H       -1.1322474046   -1.3804947085    3.5233410482
29   

C        1.3473676785   -1.0828286154    0.0207573927
C        1.7223798638   -2.2035491869    0.7620863916
C        1.1815819171    0.1452672809    0.6622799070
C        1.9182891437   -2.0958192535    2.1434518374
C        1.3766024093    0.2500097808    2.0444606975
C        1.6085274411   -0.4672302056    6.3885371774
C        2.6124497212   -1.4722376515    6.1708094003
C        1.7299600816   -0.8738931934    2.8211885879
C        1.1899171973   -0.1014393362    5.1446022832
C        0.1405804474    0.9081074520    4.7721946150
C       -2.2073631317    1.4634959276    4.1826872312
C       -1.5483203249   -0.9059501208    4.6865671850
N        2.7575816448   -1.6752494975    4.8860214762
N        1.9169162870   -0.8176668693    4.2259872598
N       -1.1767348323    0.4991926759    4.5546527244
O        0.4462165882    2.0917545157    4.6070035900
H        1.1962145479   -1.1631645303   -1.0499886917
H        1.8634967808   -3.1589282996    0.2689958342
H        0.9112533710    1.0249479233    0.0886000028
H        2.2091918533   -2.9784140002    2.7024539579
H        1.2816924042    1.2315134311    2.4889281082
H        1.2624714345   -0.0862794745    7.3414877594
H        3.1579710347   -1.9928351025    6.9494033628
H       -2.3400395561    1.4695538595    3.0963585365
H       -1.9469923687    2.4748393235    4.5109128401
H       -3.1592587246    1.2063336837    4.6575589134
H       -2.6219801576   -1.0048913674    4.8739594123
H       -1.0305757990   -1.3761483045    5.5284086438
H       -1.3029711692   -1.4476506765    3.7672487126
29   

C        1.5948089455   -1.1314923354   -0.1230960583
C        1.8735522689   -2.2567446014    0.6527312406
C        1.4355372001    0.1094294413    0.4945048839
C        1.9794993952   -2.1395112895    2.0432506222
C        1.5419604441    0.2229315258    1.8856802213
C        1.4482464678   -0.5482051568    6.2533923510
C        2.4848365041   -1.5268147703    6.0811848522
C        1.7957309624   -0.9027473851    2.6957441762
C        1.1108955451   -0.1518180714    4.9932783361
C        0.0592284850    0.8472490384    4.6035484399
C       -2.3206966922    1.4849989335    4.3322680529
C       -1.7126020448   -0.8470058778    5.0212732171
N        2.7197857235   -1.6929002080    4.8052974054
N        1.9070760131   -0.8366558515    4.1082084460
N       -1.2934586313    0.5069632717    4.6734331961
O        0.3782588206    1.9764862922    4.2209970149
H        1.5143897536   -1.2180874496   -1.2009361868
H        2.0109052777   -3.2225368453    0.1793963455
H        1.2415679854    0.9929176083   -0.1036716410
H        2.1990846167   -3.0253552492    2.6288497654
H        1.4663507462    1.2131026391    2.3101510311
H        1.0289280098   -0.2022151732    7.1900478565
H        2.9879095143   -2.0563312426    6.8820237142
H       -2.5416278906    1.4425924974    3.2613109592
H       -2.0001838848    2.4996922283    4.5901718778
H       -3.2378902877    1.2827952952    4.8943871509
H       -1.8834181178   -0.9271209397    6.0991795580
H       -0.9664457378   -1.5893621618    4.7208981875
H       -2.6386491653   -1.1013032765    4.4960141617
29   

C        1.7710609816   -1.1430298836   -0.2347685484
C        1.9396220142   -2.2804898905    0.5552495824
C        1.6576836634    0.1081810508    0.3729636578
C        1.9791400076   -2.1641559622    1.9492670137
C        1.7010191869    0.2203537457    1.7678310831
C        1.3234704300   -0.6494618683    6.1307721019
C        2.4134134072   -1.5713078488    5.9822876182
C        1.8379654976   -0.9158503766    2.5891433260
C        1.0225179113   -0.2308855503    4.8669839108
C       -0.0455616581    0.7431753639    4.4728855156
C       -2.4143030174    1.4717912946    4.4737334334
C       -1.8022870477   -0.8111155611    5.3052559185
N        2.7158602867   -1.6863363043    4.7158677735
N        1.8956230142   -0.8500845275    4.0033158437
N       -1.3848974754    0.4828926650    4.7757253459
O        0.2399787320    1.8000665705    3.9018810902
H        1.7417756247   -1.2286757206   -1.3152413344
H        2.0440429821   -3.2545077670    0.0905057100
H        1.5499917479    0.9998043292   -0.2346788650
H        2.1165576227   -3.0571716052    2.5487826324
H        1.6733107333    1.2136322799    2.1920920117
H        0.8505327349   -0.3484539271    7.0573138982
H        2.9046477886   -2.0992534133    6.7914648025
H       -2.7677907007    1.3480845244    3.4455002874
H       -2.0296220404    2.4893066265    4.5989891395
H       -3.2607702056    1.3595242375    5.1585776647
H       -1.8027701386   -0.7932148209    6.3993964364
H       -1.1446799638   -1.6147126669    4.9584261916
H       -2.8104441735   -1.0547812628    4.9551995604
29   

C        1.8731376718   -1.2133548013   -0.2512376755
C        3.0025227562   -1.5391373246    0.5010793247
C        0.6760271364   -0.9051465427    0.3969929833
C        2.9329847494   -1.5526208604    1.8988080494
C        0.6108555120   -0.9133153123    1.7954383956
C        1.1145670504   -1.0142041862    6.1068986004
C        2.1168510048   -2.0364862231    5.9716021388
C        1.7430860777   -1.2255999719    2.5779364121
C        0.9058705891   -0.5408580848    4.8435311090
C        0.1120838850    0.6510356256    4.4087066115
C       -1.9427087269    2.0343509335    4.4716722697
C       -1.9304476775   -0.2417865045    5.5190255126
N        2.4656095147   -2.1453349697    4.7157371007
N        1.7121578722   -1.2573757605    3.9944477526
N       -1.2155245171    0.8162927695    4.8137647814
O        0.6328949512    1.5145926555    3.7006846186
H        1.9250356931   -1.2017632679   -1.3341186326
H        3.9357201677   -1.7797296366    0.0044538514
H       -0.2062732935   -0.6602341107   -0.1834044747
H        3.8187127323   -1.8058766930    2.4707888336
H       -0.3401965326   -0.6906607598    2.2603150872
H        0.6846143277   -0.6508139168    7.0317572217
H        2.5391211195   -2.6126674288    6.7867804444
H       -2.4248105972    1.9265734677    3.4952790478
H       -1.2705592509    2.8984075832    4.4437933161
H       -2.7068906458    2.2444544980    5.2267055247
H       -1.8032476119   -0.1327200583    6.6004981228
H       -1.5776801079   -1.2315491722    5.2115558524
H       -2.9987788931   -0.1980979805    5.2841532335
29   

C        1.9625788438   -1.2952197663   -0.2717922042
C        3.0938151207   -1.5121748803    0.5166041267
C        0.7251121960   -1.0803345347    0.3380663323
C        2.9852926823   -1.5110226711    1.9118685443
C        0.6212956086   -1.0724813861    1.7343232183
C        0.9848925678   -1.0989115754    6.0518399067
C        2.0298514588   -2.0806849334    5.9480290062
C        1.7530001070   -1.2752114853    2.5510857380
C        0.8075588372   -0.6158368565    4.7854583254
C        0.0318693726    0.5782836466    4.3326258500
C       -1.9025998318    2.1151973520    4.4971622746
C       -1.9508785561   -0.0781135571    5.6998134514
N        2.4397550499   -2.1547278618    4.7091423450
N        1.6818332730   -1.2894420980    3.9657088271
N       -1.2271024682    0.8751611125    4.8662205380
O        0.4936794417    1.3300982378    3.4714707121
H        2.0446863356   -1.2947323750   -1.3528186009
H        4.0581055178   -1.6790564568    0.0501192627
H       -0.1575797689   -0.9186735514   -0.2700538831
H        3.8710889408   -1.6796239261    2.5140610935
H       -0.3537620661   -0.9177496722    2.1777120995
H        0.5196597926   -0.7581439498    6.9677653635
H        2.4391829228   -2.6509676040    6.7738873677
H       -2.4620323765    1.9801657860    3.5664530544
H       -1.1811713631    2.9285131806    4.3653955034
H       -2.5936768020    2.4216885611    5.2887991229
H       -1.7256843425    0.0904812398    6.7573506473
H       -1.6975752061   -1.1091843720    5.4329628476
H       -3.0297174751    0.0315941967    5.5496524389
29   

C        2.1890481414   -1.5700462997   -0.1653549827
C        3.2987764966   -1.6410127098    0.6786685065
C        0.9092878921   -1.4550675157    0.3818678286
C        3.1261849466   -1.5939090484    2.0666084029
C        0.7412423314   -1.4006634630    1.7709606349
C        0.8900651199   -1.2537674633    6.0908234369
C        1.9789221562   -2.1904080160    6.0529347639
C        1.8486397208   -1.4548079116    2.6412542782
C        0.7604808170   -0.7808675991    4.8125864785
C        0.0067297344    0.4053014798    4.3073603893
C       -1.7969551925    2.0911617736    4.4691415053
C       -1.9124007992    0.0252683987    5.8676548362
N        2.4656973282   -2.2461566260    4.8425268985
N        1.7132889139   -1.4207112316    4.0503966737
N       -1.1764978009    0.8466741730    4.9137452422
O        0.3959766508    1.0184575997    3.3103786921
H        2.3207082621   -1.6046950861   -1.2408742788
H        4.2953024475   -1.7298554538    0.2611605637
H        0.0439963069   -1.4056334176   -0.2690876240
H        3.9940954238   -1.6498552282    2.7140595248
H       -0.2607733553   -1.3198521676    2.1728991086
H        0.3783940652   -0.9269295267    6.9859921382
H        2.3643941746   -2.7393356602    6.9043526953
H       -2.3983287552    1.9161519340    3.5717557949
H       -1.0352246073    2.8462176667    4.2475973437
H       -2.4390793952    2.4999134824    5.2557929250
H       -1.6017394096    0.2553882020    6.8913694938
H       -1.7635816303   -1.0406301460    5.6674821882
H       -2.9870410112    0.2147600763    5.7794110055
29   

C        2.7420108531   -0.9867777704   -0.0930229204
C        2.7254371571    0.0359207129    0.8584199972
C        2.2625902575   -2.2540398811    0.2441858132
C        2.2196674331   -0.2065567408    2.1415881020
C        1.7648352112   -2.4939073465    1.5298791106
C        0.5217666504   -1.5770162386    5.8752419554
C        1.2578306278   -2.7951274107    5.6852736984
C        1.7141931528   -1.4726268940    2.4967083317
C        0.5018802141   -0.9512793892    4.6548423656
C       -0.3477061885    0.1682939285    4.1472933270
C       -1.9737602926    2.0110460335    4.4251658355
C       -0.7311203169    1.1696011402    6.4148538519
N        1.6251457550   -2.8929991781    4.4376727255
N        1.2167671990   -1.7581934030    3.7907118083
N       -1.0411584699    1.0430132664    4.9967786455
O       -0.4298266536    0.3979882272    2.9376911475
H        3.1260448221   -0.7981448748   -1.0890869031
H        3.1013417690    1.0200223690    0.6034270462
H        2.2728430676   -3.0527859872   -0.4887085517
H        2.2175971720    0.5960255703    2.8687079045
H        1.3964300309   -3.4810251137    1.7854753130
H        0.0056409803   -1.3155834079    6.7878160646
H        1.4447630398   -3.5411095164    6.4490805558
H       -2.6847130071    2.3528931070    5.1840454891
H       -2.5559414790    1.5551946902    3.6172563407
H       -1.4297786131    2.8748101792    4.0304921209
H        0.3328247246    0.9903956333    6.5998111944
H       -1.3372694010    0.4745279387    7.0038863172
H       -0.9408380728    2.1873491996    6.7595393836
29   

C        2.7496570146   -0.9420423431   -0.0462683417
C        2.5591389871    0.0893475285    0.8758692307
C        2.4208216513   -2.2528360935    0.3038517624
C        2.0308136690   -0.1890494015    2.1424024685
C        1.8999987100   -2.5281822889    1.5732401066
C        0.3565513457   -1.6775373471    5.8404184721
C        1.1440738046   -2.8686681151    5.6810486946
C        1.6772487477   -1.5026321306    2.5115280564
C        0.3790611164   -1.0498206716    4.6238956977
C       -0.4803542886    0.0571704468    4.1083579227
C       -1.9463200721    2.0252034369    4.4215301713
C       -0.5030354644    1.2515671065    6.3073370658
N        1.5794999685   -2.9437557914    4.4522946872
N        1.1583423117   -1.8218538512    3.7898414179
N       -0.9987301041    1.0489793130    4.9510550810
O       -0.7360489795    0.1454218243    2.9048340872
H        3.1517604541   -0.7263653835   -1.0296684272
H        2.8185177270    1.1079135737    0.6109702041
H        2.5655538742   -3.0585858326   -0.4068443590
H        1.9000015069    0.6252308751    2.8437869638
H        1.6478311512   -3.5494295638    1.8360266014
H       -0.2178806252   -1.4221236353    6.7206110211
H        1.3199128494   -3.6122087881    6.4498474468
H       -2.5405908913    2.4592370920    5.2318886876
H       -2.6452969346    1.5482124621    3.7262967215
H       -1.4141665591    2.8265989219    3.8998279750
H        0.5470700652    0.9541283293    6.3919835101
H       -1.1057883324    0.6856750081    7.0242193586
H       -0.5517683194    2.3125062020    6.5729957195
29   

C        2.7491961925   -0.8179954014    0.0333200659
C        2.4327775809    0.2010320923    0.9338036478
C        2.5432590615   -2.1500611876    0.3959889717
C        1.9018732324   -0.1115245696    2.1911036416
C        2.0192939750   -2.4593957675    1.6562784327
C        0.2473105126   -1.7243902013    5.8556314102
C        1.0924960420   -2.8790617175    5.7176722541
C        1.6719841485   -1.4493197510    2.5738115794
C        0.3014002958   -1.0834634010    4.6494969952
C       -0.5526318550    0.0291167103    4.1342942633
C       -1.8486687636    2.1144378445    4.4559366744
C       -0.2841849446    1.3338425962    6.2454020616
N        1.5938268116   -2.9132842380    4.5110713588
N        1.1515583578   -1.8024286367    3.8430418466
N       -0.9114167910    1.1095431302    4.9478141170
O       -0.9594893640    0.0132212175    2.9705622574
H        3.1540893442   -0.5761917371   -0.9428728639
H        2.5978002386    1.2367094438    0.6595185583
H        2.7860002400   -2.9465829329   -0.2982319671
H        1.6802807919    0.6992542056    2.8728657463
H        1.8626929017   -3.4977141040    1.9265883368
H       -0.3714583567   -1.4863326226    6.7111672258
H        1.2646104027   -3.6257437358    6.4842615427
H       -2.3692628951    2.5904902374    5.2929364980
H       -2.6127012893    1.6570782764    3.8184621670
H       -1.3175585637    2.8804589641    3.8827457521
H        0.7422481159    0.9534412363    6.2597904202
H       -0.8630119560    0.8508258666    7.0386066625
H       -0.2270292210    2.4064177332    6.4570463251
29   

C        2.7665798625   -0.7653488289    0.1282788249
C        2.3336968568    0.2277662623    1.0084128639
C        2.6853304242   -2.1065246686    0.5054965040
C        1.8114652934   -0.1201549042    2.2598920312
C        2.1687180779   -2.4512282859    1.7596695642
C        0.2125696904   -1.8669706174    5.8991246612
C        1.1247382943   -2.9718086548    5.7757921328
C        1.7060917822   -1.4699984942    2.6580629028
C        0.2767980633   -1.2081992148    4.7051343263
C       -0.5889520402   -0.0975406828    4.1991355012
C       -1.7205839879    2.0869666157    4.5040097300
C       -0.0285487606    1.3067654506    6.1780153919
N        1.6769725017   -2.9543668410    4.5902837608
N        1.1959826240   -1.8599714072    3.9214251208
N       -0.7894914889    1.0590864547    4.9583106740
O       -1.1541739580   -0.2030682764    3.1093466093
H        3.1659710056   -0.4962120023   -0.8430654647
H        2.4032257782    1.2714117162    0.7233437089
H        3.0197142035   -2.8832911791   -0.1728843650
H        1.5070495142    0.6787473274    2.9226882431
H        2.1098202910   -3.4973115365    2.0390531308
H       -0.4408562516   -1.6604245387    6.7373646821
H        1.3096594117   -3.7205449571    6.5373784228
H       -2.1661520963    2.5997687583    5.3623104631
H       -2.5426463133    1.6485152564    3.9286559887
H       -1.2008997763    2.8198748939    3.8794237046
H        0.9707647030    0.8635153764    6.1189625584
H       -0.5548297732    0.8971010787    7.0456898467
H        0.1093445191    2.3826571564    6.3258066744
29   

C        2.6904883439   -0.6341021345    0.1097758986
C        1.3187696738   -0.4488619376    0.2881211813
C        3.4369946080   -1.2612580971    1.1076581810
C        0.6971421672   -0.8791617772    1.4664855250
C        2.8121601527   -1.6869429554    2.2852656982
C       -0.0710043908   -1.9974551606    5.7200160001
C        0.7399480502   -3.1610585264    5.5002780682
C        1.4337637690   -1.4858797353    2.5025968496
C        0.0332006179   -1.2568449377    4.5782598119
C       -0.6284140867    0.0574184245    4.2958157052
C       -1.0906120319    2.4177543649    4.8943283411
C        0.6622352660    1.1277843378    6.1353301310
N        1.2855004959   -3.0930507793    4.3144133052
N        0.8466647000   -1.9444739466    3.7077947572
N       -0.3786988590    1.1631448355    5.1133950841
O       -1.4220966647    0.1793742016    3.3577346148
H        3.1704912325   -0.3044550449   -0.8048535100
H        0.7271581528    0.0165437913   -0.4923995180
H        4.5003191944   -1.4229420060    0.9705391063
H       -0.3758742319   -0.7728102753    1.5350995813
H        3.4054434951   -2.1778411346    3.0486872097
H       -0.6483090136   -1.7676170184    6.6069492037
H        0.8872089737   -3.9674648878    6.2093821071
H       -1.1673652972    2.9787364500    5.8310937828
H       -2.1112667745    2.2338855231    4.5429861642
H       -0.5632565604    3.0278810997    4.1546289019
H        1.4736416605    0.4484799171    5.8548777325
H        0.2434026359    0.8113049608    7.0954713479
H        1.1083294309    2.1203475854    6.2541086083
29   

C        2.6615048433   -0.4987743652    0.2657591494
C        1.3000542386   -0.2753659879    0.4736180593
C        3.3928504653   -1.2224543896    1.2076808460
C        0.6739643087   -0.7632297644    1.6266864616
C        2.7635931587   -1.7089006875    2.3591714077
C       -0.2096661787   -2.1292113635    5.7537314979
C        0.6673010294   -3.2475810123    5.5486967159
C        1.3953501081   -1.4738305316    2.6077273791
C       -0.0835061521   -1.3596964462    4.6353602116
C       -0.7724555528   -0.0572251584    4.3434924891
C       -1.0515961573    2.3744259123    4.7351593282
C        0.8004799649    1.1206422668    5.8672267192
N        1.2690211568   -3.1236234974    4.3940407917
N        0.8049128516   -1.9821670550    3.7929969639
N       -0.3626782741    1.1131872313    4.9858234156
O       -1.7060948214   -0.0077137179    3.5378058060
H        3.1451651758   -0.1223774068   -0.6287262635
H        0.7195738441    0.2663879667   -0.2649886518
H        4.4485578641   -1.4109825076    1.0476682024
H       -0.3918548852   -0.6126283894    1.7142139953
H        3.3486290787   -2.2712334821    3.0784622765
H       -0.8370831184   -1.9438079588    6.6167687346
H        0.8183309998   -4.0633532600    6.2462053059
H       -0.9871433321    3.0227104739    5.6147485146
H       -2.1147692260    2.2092217668    4.5321238239
H       -0.6010444258    2.8872955367    3.8798639757
H        1.5343397902    0.3642571718    5.5715145134
H        0.4947922109    0.9377192248    6.9019184807
H        1.3076668913    2.0891613765    5.8137477371
29   

C        2.5649625634   -0.2870960802    0.4779894507
C        1.2080057996   -0.0651031956    0.7158818583
C        3.2970410707   -1.0886785290    1.3541873371
C        0.5871121103   -0.6317855842    1.8351517977
C        2.6736249394   -1.6552441236    2.4715649339
C       -0.3609873453   -2.2752635310    5.8150110673
C        0.5590028835   -3.3561556721    5.5901293231
C        1.3111638533   -1.4241492187    2.7513050338
C       -0.2064912526   -1.4432217280    4.7471847257
C       -0.9112521340   -0.1459593094    4.4653310482
C       -1.0007241221    2.3324157578    4.5857648552
C        0.9521725055    1.0815889080    5.5482677343
N        1.2044235898   -3.1559670734    4.4692805951
N        0.7277699842   -1.9998659459    3.9088703224
N       -0.3346187618    1.0629927952    4.8598697478
O       -1.9747776908   -0.1378004425    3.8403775780
H        3.0452045345    0.1521390472   -0.3893266694
H        0.6281552495    0.5392540503    0.0270037718
H        4.3493664579   -1.2745075060    1.1701212680
H       -0.4758492966   -0.4693009372    1.9516601564
H        3.2597400889   -2.2750154601    3.1412137985
H       -1.0317367826   -2.1537091839    6.6566253404
H        0.7067617789   -4.2019164501    6.2517023122
H       -0.8324087888    3.0369274825    5.4061705987
H       -2.0835193318    2.2028754170    4.4899222612
H       -0.6141579270    2.7656614863    3.6580707643
H        1.0362706698    0.2507481823    6.2556913642
H        1.0687882783    2.0055474639    6.1230093391
H        1.7683615529    1.0170355740    4.8213278203
29   

C        2.5195867702   -0.1958249399    0.6064849871
C        1.1574631200   -0.0135024518    0.8502610118
C        3.2744956330   -0.9948434016    1.4659628995
C        0.5539014145   -0.6169270961    1.9597046912
C        2.6688409981   -1.5982461692    2.5737038755
C       -0.4553549001   -2.4056352202    5.8291904531
C        0.5166124433   -3.4436435226    5.6159489419
C        1.3023355892   -1.4062039298    2.8594289136
C       -0.2625598471   -1.5171608891    4.8148237542
C       -0.9730050314   -0.2187900299    4.5643216072
C       -0.9752323965    2.2685892817    4.5005664743
C        1.0298257697    1.0241933387    5.3459218610
N        1.2242557221   -3.1702065294    4.5489124226
N        0.7359187914   -2.0097754997    4.0101018349
N       -0.3191608738    0.9963553028    4.7886106968
O       -2.1226996172   -0.2166835826    4.1173351724
H        2.9868589285    0.2725827685   -0.2526581065
H        0.5615181934    0.5896219614    0.1741398366
H        4.3309632296   -1.1495057644    1.2766011644
H       -0.5129468711   -0.4820586118    2.0877665092
H        3.2709925993   -2.2149352954    3.2320420444
H       -1.1768964824   -2.3414343177    6.6344661897
H        0.6552133640   -4.3120783590    6.2495452913
H       -0.7831579437    2.9854881551    5.3048337426
H       -2.0611178562    2.1579068162    4.4203455516
H       -0.5970181420    2.6781166367    3.5587098215
H        1.1705233007    0.2274823301    6.0833988116
H        1.2140784932    1.9730362867    5.8592673597
H        1.7711844378    0.9101114465    4.5484646437
29   

C        2.4917615410   -0.1853971901    0.6537651245
C        1.1289366260   -0.0171038984    0.9048594188
C        3.2608147140   -0.9736806518    1.5110114329
C        0.5387564205   -0.6240151301    2.0195784565
C        2.6683891962   -1.5812437035    2.6236177024
C       -0.5426473022   -2.4975096727    5.7931770419
C        0.4584343201   -3.5110539753    5.5960514610
C        1.3018968456   -1.4029745723    2.9155846423
C       -0.3044776188   -1.5586529115    4.8350289968
C       -1.0105165632   -0.2511427580    4.6457890308
C       -0.9971417910    2.2271588335    4.4742288647
C        1.0716714550    1.0113987229    5.1795440289
N        1.2253932722   -3.1807423452    4.5877565835
N        0.7459152466   -2.0083626394    4.0691247716
N       -0.3217388916    0.9626143140    4.7465481863
O       -2.2195759183   -0.2362045782    4.3993686219
H        2.9490127035    0.2858932431   -0.2092242587
H        0.5230480288    0.5783622735    0.2307720896
H        4.3179021845   -1.1168211731    1.3159531896
H       -0.5281030308   -0.4986837342    2.1598065190
H        3.2796615601   -2.1901739702    3.2808979294
H       -1.3066983269   -2.4738539239    6.5607962002
H        0.5748896478   -4.4025691690    6.2014281037
H       -1.3368427282    2.6834547714    5.4089561729
H       -1.8601122415    2.0874885395    3.8153293810
H       -0.3134974040    2.9152055184    3.9668806690
H        1.3118899726    0.1788042572    5.8484123895
H        1.2615079557    1.9334276531    5.7380384554
H        1.7418255247    0.9821459242    4.3146254453
29   

C        0.8285952219   -1.7965525588    0.3697109568
C        0.0697896754   -2.2706501232    1.4415531279
C        1.8927767899   -0.9250803022    0.6069285555
C        0.3657721401   -1.8627627192    2.7475314433
C        2.1891169261   -0.5216120511    1.9135361679
C        1.6508283219   -0.1068286906    6.4780575590
C        2.9989000200   -0.0064820665    5.9880052398
C        1.4212318869   -0.9636251641    3.0081651724
C        0.8812775643   -0.3899416200    5.3891353612
C       -0.6118978269   -0.4657965447    5.3659277588
C       -2.8276941023    0.0782649082    4.4023232333
C       -0.7956641001    1.2890742292    3.5954793942
N        3.0132195780   -0.2201418623    4.6968212280
N        1.7330983056   -0.5135367663    4.3132439591
N       -1.3797433940    0.2516403758    4.4409082495
O       -1.1962928435   -1.1337085402    6.2242191178
H        0.5985724680   -2.1113997502   -0.6421959843
H       -0.7461382179   -2.9624857068    1.2635611363
H        2.4918146060   -0.5605029906   -0.2202809937
H       -0.2241075912   -2.2741531317    3.5577488339
H        3.0192609622    0.1556143980    2.0833146540
H        1.3115559498    0.0530238258    7.4946222537
H        3.8678871135    0.2336335005    6.5897126829
H       -3.3101608332    0.7601993749    5.1092107244
H       -3.1058937404   -0.9507301434    4.6528477374
H       -3.2058682084    0.2797992296    3.3950453901
H       -0.5722146603    0.8930664110    2.6000069949
H        0.1200267161    1.6965089656    4.0353423733
H       -1.4944564989    2.1248754359    3.4892653940
29   

C        0.8403565169   -1.7953386394    0.3554906496
C        0.0542611454   -2.2390953642    1.4210639428
C        1.9131777510   -0.9355370842    0.5972067695
C        0.3323057739   -1.8125315065    2.7252375086
C        2.1920739809   -0.5145909237    1.9020079227
C        1.6007789393   -0.1432546436    6.4680380817
C        2.9573606534   -0.0758775803    5.9978641301
C        1.3975544795   -0.9268763892    2.9888011544
C        0.8285750224   -0.3507885334    5.3626327906
C       -0.6643652449   -0.3104450103    5.3607007548
C       -2.8701295036    0.2229756155    4.3842593069
C       -0.8168316691    1.2629970320    3.4198806702
N        2.9788926919   -0.2352557976    4.6995905972
N        1.6935603540   -0.4650112989    4.2922380453
N       -1.4145247072    0.3164101991    4.3575052159
O       -1.2704062996   -0.7547579636    6.3405667141
H        0.6245248880   -2.1241693264   -0.6551147465
H       -0.7691553729   -2.9209219623    1.2391360139
H        2.5326964476   -0.5940297933   -0.2247949289
H       -0.2794517903   -2.1936269203    3.5341282222
H        3.0296087872    0.1521916125    2.0771215764
H        1.2554177389    0.0018799444    7.4850496138
H        3.8270520991    0.1075952808    6.6182032422
H       -3.2842148494    0.9505040008    5.0892770727
H       -3.1865962605   -0.7824564930    4.6812927027
H       -3.2824774490    0.4146838204    3.3885401174
H       -0.6564023972    0.7927356685    2.4449542221
H        0.1338627644    1.6539191780    3.7952229541
H       -1.4787610419    2.1241708066    3.2840565738
29   

C        0.8726210315   -1.7710408758    0.3557223655
C        0.0923769877   -2.2267281515    1.4209106744
C        1.9336759287   -0.8966967959    0.5981156866
C        0.3648874184   -1.7978678324    2.7256680790
C        2.2073159398   -0.4740194669    1.9034002820
C        1.6356217281   -0.2560192150    6.4841674748
C        2.9905025267   -0.1842141214    6.0114494783
C        1.4187006696   -0.8992299614    2.9891091193
C        0.8486586548   -0.3790486702    5.3747629033
C       -0.6385502552   -0.2458099821    5.4150934510
C       -2.8663129046    0.2413242893    4.4763727173
C       -0.8441119960    1.1833540965    3.3703974982
N        3.0021870927   -0.2591268289    4.7061110389
N        1.7112774910   -0.4421551600    4.2940416128
N       -1.4114333575    0.2891660926    4.3757816224
O       -1.2151247553   -0.4913273187    6.4788148774
H        0.6614715565   -2.1015579637   -0.6553352649
H       -0.7220698836   -2.9189053927    1.2378164184
H        2.5485349768   -0.5458539421   -0.2234852378
H       -0.2419889339   -2.1827684945    3.5365877745
H        3.0364373392    0.2026457554    2.0808867150
H        1.2999094257   -0.1509701231    7.5095645985
H        3.8661664637   -0.0535606586    6.6367371313
H       -3.2268738958    1.0287228223    5.1457559315
H       -3.1922042141   -0.7308072451    4.8612371488
H       -3.3217229119    0.3735677182    3.4897962452
H       -0.7366288598    0.6705780499    2.4099428539
H        0.1268335014    1.5772747465    3.6853456555
H       -1.4998945462    2.0479704534    3.2266283620
29   

C        0.9088705918   -1.7442754725    0.3592055302
C        0.1299047995   -2.2120188111    1.4203935181
C        1.9546559806   -0.8528810728    0.6067879792
C        0.3887185738   -1.7784348626    2.7265123436
C        2.2147043742   -0.4257411315    1.9133770756
C        1.6306092218   -0.3522717096    6.4976230327
C        2.9881991514   -0.2890725128    6.0329206553
C        1.4270083668   -0.8636033020    2.9942629537
C        0.8396798440   -0.3864030081    5.3829921666
C       -0.6360253400   -0.1487654662    5.4518281987
C       -2.8833161858    0.2753346707    4.5415576025
C       -0.8961323247    1.1201980071    3.3142000395
N        3.0022401862   -0.2829194542    4.7260958116
N        1.7089684218   -0.4093213094    4.3016038114
N       -1.4326204189    0.2812943990    4.3819812662
O       -1.1724074236   -0.1844767379    6.5623258979
H        0.7087826462   -2.0785511257   -0.6528739814
H       -0.6727089775   -2.9167101926    1.2329228329
H        2.5686959429   -0.4930185917   -0.2115394015
H       -0.2164703294   -2.1685073881    3.5364156528
H        3.0330302819    0.2623901357    2.0969545505
H        1.2980854768   -0.2809265303    7.5271148420
H        3.8645994155   -0.2171004966    6.6666249775
H       -3.2027876085    1.1299295286    5.1464952027
H       -3.2101104134   -0.6484971315    5.0305939537
H       -3.3752597218    0.3234984182    3.5649066440
H       -0.8295576935    0.5627188185    2.3754118175
H        0.0878350720    1.5211749295    3.5745673039
H       -1.5504285493    1.9828536752    3.1527550688
