22

C     -2.85134   -2.79289    4.00082
C     -1.58588   -3.11092    3.50477
C     -3.36441   -1.50460    3.84478
C     -1.33524   -0.83614    2.63916
C     -0.83169   -2.13533    2.85334
C     -2.61131   -0.55091    3.16206
C     -0.21036    0.09846    0.66086
C      0.52863    0.54811   -1.35549
C      0.04207   -0.92138   -1.30891
N      0.44390    1.00650    0.04063
N     -0.57836    0.15523    1.98927
O     -0.61190   -1.01977   -0.01235
Cl     0.79062   -2.53912    2.34153
Cl    -3.27732    1.06025    2.95054
H     -3.43453   -3.54819    4.51908
H     -1.16802   -4.10278    3.64143
H     -4.34284   -1.24032    4.23184
H      1.55484    0.62913   -1.72622
H     -0.10738    1.17345   -1.99478
H     -0.69216   -1.18549   -2.07168
H      0.86409   -1.64385   -1.32007
H     -0.65654    1.10221    2.33922
