23

C      0.54527   -6.53569    4.34702
C      0.87727   -5.37144    5.04344
C     -0.17983   -6.48334    3.15402
C     -0.25400   -4.05988    3.33710
C      0.48057   -4.13532    4.53358
C     -0.58480   -5.24509    2.65561
C     -0.14329   -2.18144    1.80175
C      1.05440   -1.75576   -0.11798
C      0.21907   -0.52918    0.29785
N      0.88327   -2.60813    1.07285
N     -0.68673   -2.78707    2.84691
O     -0.63479   -1.02874    1.39483
Cl     0.88925   -2.66963    5.38028
Cl    -1.51087   -5.16945    1.17746
H      0.85322   -7.49932    4.74127
H      1.43878   -5.41582    5.97050
H     -0.44225   -7.39022    2.61979
H      0.65964   -2.25766   -1.00532
H      2.10552   -1.50847   -0.27069
H      0.82063    0.28000    0.71313
H     -0.44692   -0.15558   -0.47697
H      1.28714   -3.53201    1.17916
H     -1.40543   -2.26929    3.34802
