19   

C        2.1660547046   -0.4923369861   -0.0265452379
C        0.8659681598   -0.3865624871    0.4512985063
C        3.1478624509   -1.1019988468    0.7563348799
C        0.5589855193   -0.8898378545    1.7138492524
C        3.8449346870   -3.0642310345    3.9242394223
C        6.1162350647   -2.6596252831    3.1774701037
C        2.8595678527   -1.6261686417    2.0394869149
C        1.5354982797   -1.5023338787    2.5111865296
C        3.9436541638   -2.2531196598    2.8176715337
N        5.2559536655   -2.0428233336    2.4045458545
O        1.1473964352   -1.9372543845    3.7461184977
S        5.4103211003   -3.5760770225    4.4951767979
H        2.4201089185   -0.1018496608   -1.0054553361
H        0.0997967398    0.0871053739   -0.1528276641
H        4.1502806328   -1.1668858768    0.3473469123
H       -0.4572312031   -0.7942368654    2.0754243878
H        2.9202837588   -3.3717946988    4.3893938804
H        7.1863669499   -2.6099959942    3.0135775809
H        0.2159306386   -1.7079904771    3.9028026637
19   

C        2.1418091213   -0.5740852674   -0.0609345849
C        0.8636534327   -0.3968948350    0.4585442115
C        3.1257433383   -1.1972130711    0.7094126391
C        0.5801750127   -0.8404778167    1.7502163869
C        3.8232398946   -3.2248515262    3.7866796183
C        6.1011735308   -2.5385970979    3.2992668176
C        2.8553042259   -1.6653321477    2.0135402712
C        1.5598704631   -1.4652098420    2.5330394600
C        3.9427949656   -2.2888855373    2.7904260251
N        5.2532108141   -1.9092502586    2.5217701331
O        1.2192383485   -1.8443718251    3.8009497755
S        5.3793247169   -3.6663689477    4.4361130349
H        2.3766967211   -0.2264126226   -1.0605415711
H        0.0968472800    0.0882402302   -0.1355840289
H        4.1166600611   -1.3195497827    0.2850701302
H       -0.4164665401   -0.6878987935    2.1451401130
H        2.8833050176   -3.6406587286    4.1221494520
H        7.1713653630   -2.3768285022    3.2440326437
H        0.3169795868   -1.5478486385    4.0074400258
19   

C        2.1091445776   -0.6344928920   -0.0878523573
C        0.8577373565   -0.3887801659    0.4718064807
C        3.0951712823   -1.2743972755    0.6667336353
C        0.6027803261   -0.7791144639    1.7877655512
C        3.8170399786   -3.3551217381    3.6449910763
C        6.0550480790   -2.4273157643    3.4436943030
C        2.8463203669   -1.6940259874    1.9875803346
C        1.5852664876   -1.4203775326    2.5526846005
C        3.9396097116   -2.3151981969    2.7622582456
N        5.2205586247   -1.7880727791    2.6590529346
O        1.2911555811   -1.7600731366    3.8435880023
S        5.3493438562   -3.7358606823    4.3832937266
H        2.3215784442   -0.3242883837   -1.1046571414
H        0.0902136110    0.1099859108   -0.1099721811
H        4.0716748734   -1.4469640169    0.2264925043
H       -0.3709450877   -0.5730146257    2.2142516244
H        2.8825795551   -3.8577744535    3.8557042055
H        7.1053446505   -2.1682473292    3.5093019130
H        0.4190212314   -1.4104393110    4.0916804524
19   

C        2.0802336663   -0.6845220944   -0.1032900903
C        0.8591271753   -0.3783006820    0.4952660833
C        3.0753084058   -1.3290946614    0.6360200321
C        0.6429905757   -0.7120608996    1.8345205121
C        3.8574340568   -3.4673478262    3.4780423541
C        6.0064395862   -2.3356171512    3.6109554361
C        2.8593909276   -1.6939537230    1.9760559761
C        1.6346546934   -1.3581410415    2.5827173849
C        3.9601996289   -2.3158469467    2.7465701108
N        5.1844305678   -1.6688644254    2.8359197104
O        1.3904379164   -1.6555233109    3.8942086035
S        5.3523118629   -3.8150195331    4.3042117026
H        2.2618212197   -0.4163821455   -1.1378823109
H        0.0852431457    0.1240411334   -0.0748907578
H        4.0318464242   -1.5470027258    0.1729708922
H       -0.3060200944   -0.4599113752    2.2909040027
H        2.9535657272   -4.0584127466    3.5409086066
H        7.0169588614   -1.9993996190    3.8118195702
H        0.5463908801   -1.2650985902    4.1756741957
19   

C        2.0483641720   -0.7373846323   -0.1268926756
C        0.8592641498   -0.3648661693    0.4998272059
C        3.0501291409   -1.3795289831    0.6060222880
C        0.6801716234   -0.6317755571    1.8599897914
C        3.9178438777   -3.5766727802    3.2494628276
C        5.9248582243   -2.3072773491    3.7814594843
C        2.8696401018   -1.6710326223    1.9676633929
C        1.6780546159   -1.2756505601    2.6013596980
C        3.9665434874   -2.3096999314    2.7380638445
N        5.1076812493   -1.5869788673    3.0506410465
O        1.4747488387   -1.5209425021    3.9302859328
S        5.3662290505   -3.9354601291    4.1505518756
H        2.1989053132   -0.5233515842   -1.1789369094
H        0.0806013411    0.1352510795   -0.0657657978
H        3.9814262366   -1.6521437134    0.1214532239
H       -0.2445847984   -0.3320385401    2.3369135937
H        3.0772671946   -4.2448765157    3.1193213680
H        6.8770198243   -1.9278115916    4.1334939242
H        0.6562596049   -1.0924383593    4.2304431113
19   

C        1.9969467957   -0.8311776655   -0.1428992122
C        0.8439117116   -0.3841506913    0.5031214460
C        3.0097175144   -1.4541166181    0.5916427211
C        0.7087483678   -0.5623116398    1.8830447092
C        4.0410384365   -3.6379333479    2.9836402571
C        5.8407517356   -2.3043168480    3.9367444583
C        2.8781835428   -1.6409143705    1.9766401346
C        1.7169939043   -1.1868164688    2.6268477622
C        3.9672859016   -2.2933378156    2.7492391525
N        4.9962522580   -1.5378159956    3.2890694381
O        1.5527668394   -1.3592581526    3.9724350397
S        5.4536792291   -4.0219355088    3.9301370226
H        2.1094852262   -0.6916968819   -1.2120945217
H        0.0569852853    0.1010764192   -0.0640074283
H        3.9098901725   -1.7912773664    0.0894564309
H       -0.1911057648   -0.2120647260    2.3730042503
H        3.3078741876   -4.3514968195    2.6325490558
H        6.7173611785   -1.9097391850    4.4371300298
H        0.7586430466   -0.8913174729    4.2782530399
19   

C        1.9317011831   -0.9393426873   -0.1459809888
C        0.8201809925   -0.4112560803    0.5109990031
C        2.9520504372   -1.5474260759    0.5903015320
C        0.7312409912   -0.4988250365    1.9031396698
C        4.2004208302   -3.6360970700    2.7322496319
C        5.7532878050   -2.3167027838    4.0639172617
C        2.8753465032   -1.6291669692    1.9902385441
C        1.7468023918   -1.1080356186    2.6498544149
C        3.9591757243   -2.2904790903    2.7581762694
N        4.8570645726   -1.5413047855    3.5026292095
O        1.6170674507   -1.2025632197    4.0068659281
S        5.5891283307   -4.0331426891    3.7084071980
H        2.0052649801   -0.8754714139   -1.2257218993
H        0.0274503831    0.0629145918   -0.0574047946
H        3.8170616778   -1.9515708125    0.0759930369
H       -0.1404074113   -0.0928692749    2.4010306521
H        3.5991432975   -4.3461792904    2.1806717443
H        6.5440109840   -1.9283809092    4.6951606768
H        0.8518828250   -0.6878539705    4.3103370910
19   

C        1.8644521467   -1.0397557446   -0.1417152657
C        0.7966233766   -0.4372306020    0.5219413434
C        2.8896134084   -1.6422268585    0.5919528182
C        0.7548636450   -0.4475677878    1.9183926119
C        4.3580858238   -3.5908050855    2.5417739593
C        5.6618594384   -2.3446491214    4.1755154218
C        2.8662811032   -1.6427521757    1.9977907942
C        1.7750061765   -1.0507923570    2.6642081135
C        3.9567111300   -2.2996638409    2.7525972833
N        4.7180897646   -1.5891791959    3.6682852435
O        1.6752420585   -1.0742840548    4.0268351314
S        5.7194219808   -3.9905012376    3.5547093362
H        1.9005963835   -1.0377083039   -1.2252528490
H        0.0000377398    0.0331731001   -0.0442075688
H        3.7197734757   -2.1018958536    0.0670843476
H       -0.0861174033    0.0124386630    2.4219876954
H        3.8829064311   -4.2648281525    1.8419332877
H        6.3625693992   -1.9796431911    4.9173101176
H        0.9395155220   -0.5149526741    4.3230066524
19   

C        1.8003543079   -1.1309859910   -0.1363890070
C        0.7762529034   -0.4584752144    0.5259731882
C        2.8260469603   -1.7324819721    0.5964821481
C        0.7792684733   -0.3984335443    1.9207246174
C        4.4909601806   -3.5279849020    2.4021226600
C        5.5655238023   -2.4067509107    4.2735231844
C        2.8506293493   -1.6674839402    2.0033414641
C        1.7998531746   -1.0001818740    2.6679779281
C        3.9562470365   -2.3126776686    2.7405260045
N        4.5880996783   -1.6747531811    3.7975188343
O        1.7228048693   -0.9512869588    4.0313685172
S        5.8184692783   -3.9420519137    3.4534051439
H        1.8033459759   -1.1828605863   -1.2193035815
H       -0.0211203572    0.0118253684   -0.0391663205
H        3.6222220705   -2.2393466326    0.0629636421
H       -0.0299016929    0.1156185891    2.4241742997
H        4.1255907674   -4.1484023589    1.5952175634
H        6.1788766515   -2.0862149800    5.1075001745
H        1.0089557752   -0.3568214378    4.3110432298
19   

C        1.7362976652   -1.2097349218   -0.1157119543
C        0.7493786441   -0.4835101742    0.5422903268
C        2.7677576549   -1.8029451155    0.6148189714
C        0.7975808769   -0.3603465880    1.9305575810
C        4.6285258945   -3.4312865024    2.2993429265
C        5.4811831720   -2.4786714470    4.3651648400
C        2.8386540050   -1.6842870509    2.0199404236
C        1.8242885417   -0.9527560100    2.6779826754
C        3.9683649781   -2.3099472105    2.7363910260
N        4.4733464975   -1.7747401751    3.9121727520
O        1.7707076481   -0.8275159209    4.0375227716
S        5.9222291808   -3.8675178212    3.3832981428
H        1.7075552612   -1.3086219851   -1.1949935170
H       -0.0529517680   -0.0189347536   -0.0205854668
H        3.5329458039   -2.3425702315    0.0695057175
H        0.0166989253    0.1981565229    2.4313412072
H        4.3698241015   -3.9863551476    1.4085570325
H        6.0075824443   -2.2209360338    5.2767136319
H        1.0631277511   -0.2170543472    4.2968303574
19   

C        1.6750537584   -1.2918191750   -0.0970715180
C        0.7219507584   -0.5175139770    0.5513445878
C        2.7159610747   -1.8698122716    0.6314078962
C        0.8166319650   -0.3287329348    1.9280442764
C        4.7677502872   -3.3111946365    2.2162570727
C        5.3885451570   -2.5909822524    4.4483307503
C        2.8346265341   -1.6949446439    2.0310778532
C        1.8538211163   -0.9038042587    2.6755777406
C        3.9803939545   -2.3091725007    2.7348592227
N        4.3552206230   -1.9157162088    4.0113073160
O        1.8340914429   -0.6857253814    4.0241030820
S        6.0195049488   -3.7884158285    3.3318210627
H        1.6131616826   -1.4409074531   -1.1691949461
H       -0.0882939732   -0.0645228762   -0.0096590385
H        3.4450520691   -2.4441187955    0.0747053277
H        0.0633426365    0.2724481659    2.4216590037
H        4.6308558638   -3.7733352296    1.2497461898
H        5.8228001092   -2.4222331937    5.4267839000
H        1.1166525331   -0.0787191109    4.2626560962
19   

C        1.6188188971   -1.3746930764   -0.0698329545
C        0.6996141687   -0.5525284155    0.5659373017
C        2.6724553692   -1.9334044499    0.6549738470
C        0.8426643265   -0.2952925979    1.9262836056
C        4.9221573121   -3.1372694060    2.1610278828
C        5.2636945759   -2.7553254059    4.5308180261
C        2.8437008402   -1.6895366984    2.0406820030
C        1.8946340882   -0.8476209916    2.6708981702
C        3.9840958599   -2.3153326925    2.7462179541
N        4.2054504137   -2.1154235975    4.1015566806
O        1.9316197997   -0.5238133214    3.9975688910
S        6.1143260989   -3.6826199900    3.3102934370
H        1.5171464419   -1.5819795257   -1.1291866697
H       -0.1214087246   -0.1153380771    0.0080617119
H        3.3539663093   -2.5646648961    0.1016643734
H        0.1179695968    0.3481135237    2.4093865320
H        4.9448617274   -3.4274011174    1.1217823860
H        5.5898070797   -2.7150190995    5.5635046768
H        1.1942568753    0.0616318199    4.2286363471
19   

C        1.5729143304   -1.4626622722   -0.0453608296
C        0.6862792667   -0.5911811127    0.5733391879
C        2.6381260581   -2.0020703275    0.6775611096
C        0.8740875772   -0.2633679807    1.9139213752
C        5.0460650133   -2.9347851956    2.1378577324
C        5.1417805449   -2.9360872568    4.5621842748
C        2.8524463632   -1.6844867359    2.0402538617
C        1.9398169773   -0.7938169836    2.6542735456
C        3.9818756343   -2.3175588396    2.7538159092
N        4.0602336826   -2.3312744354    4.1388685593
O        2.0537157884   -0.3800428041    3.9513048444
S        6.1861575270   -3.5612239349    3.2984160827
H        1.4327473545   -1.7281052425   -1.0871859614
H       -0.1442536540   -0.1700927623    0.0171713779
H        3.2857805172   -2.6940209292    0.1549977074
H        0.1786596113    0.4219626948    2.3821322661
H        5.1874175954   -3.0130294248    1.0699809171
H        5.3743828385   -3.0436662974    5.6151554065
H        1.3055291711    0.1853001593    4.1976491058
19   

C        2.0360852625   -0.4671190704    0.0358091363
C        0.7787059105   -0.3407020018    0.6167026608
C        3.0733599444   -1.0740424010    0.7465687802
C        0.5683961476   -0.8178832635    1.9101051315
C        5.3262306388   -1.9277763472    2.5210326577
C        4.9376284052   -3.6901087108    4.1474556228
C        2.8792801933   -1.5699764579    2.0541494782
C        1.6001353876   -1.4262038984    2.6375555159
C        4.0058221477   -2.2274820184    2.7466454074
N        3.8026419027   -3.2410719359    3.6713969207
O        1.3254177709   -1.8206030919    3.9165784386
S        6.3765515417   -2.9200795204    3.4962663122
H        2.2075649489   -0.1007810729   -0.9700944055
H       -0.0310798843    0.1280728122    0.0681682002
H        4.0343410781   -1.1770453371    0.2566857910
H       -0.4122001275   -0.7028038590    2.3547114578
H        5.6731844458   -1.1621343991    1.8413685865
H        4.9860656107   -4.4818381642    4.8858747107
H        0.3789022116   -1.7283710782    4.1067716358
19   

C        2.0216404354   -0.5597087341   -0.0129881237
C        0.7800864405   -0.3730107721    0.5898469223
C        3.0605546665   -1.1579252116    0.7037861391
C        0.5867860136   -0.7788467363    1.9115127625
C        5.2992947020   -1.7943529069    2.6629632662
C        4.9473696073   -3.7731088040    4.0321931014
C        2.8761670080   -1.5861203729    2.0330091111
C        1.6211216055   -1.3768272286    2.6427084933
C        3.9996448211   -2.2186634689    2.7538679696
N        3.8134622705   -3.3577751392    3.5227665322
O        1.3877310148   -1.7075108572    3.9478278984
S        6.3579659395   -2.8165819329    3.5974077708
H        2.1792110473   -0.2454274450   -1.0385625004
H       -0.0301320269    0.0892053471    0.0364286611
H        4.0157300698   -1.3078084259    0.2132561608
H       -0.3789762133   -0.6156358028    2.3731807380
H        5.6177903453   -0.9316922801    2.0938516604
H        5.0127964867   -4.6473142527    4.6693316932
H        0.4470242093   -1.6056091605    4.1620033234
19   

C        1.9959377596   -0.6583984974   -0.0495248034
C        0.7785875043   -0.3975749086    0.5779548363
C        3.0354755972   -1.2553071773    0.6682815908
C        0.6093270024   -0.7278311945    1.9248747788
C        5.2471523837   -1.6879809469    2.8301613847
C        4.9768634084   -3.8519797266    3.9099154864
C        2.8697709514   -1.6077844189    2.0193097981
C        1.6449220078   -1.3236910473    2.6551628275
C        3.9906741597   -2.2258010665    2.7621589508
N        3.8499678210   -3.4689838448    3.3602466551
O        1.4516453612   -1.5935155345    3.9807145747
S        6.3220543219   -2.7331413268    3.7196878357
H        2.1342451798   -0.4013172873   -1.0936259523
H       -0.0313063507    0.0638576658    0.0234231113
H        3.9762527304   -1.4609712090    0.1696940212
H       -0.3364144809   -0.5085987860    2.4044281413
H        5.5226918601   -0.7384278660    2.3916330891
H        5.0760350333   -4.7942516910    4.4360067970
H        0.5214298967   -1.4588173806    4.2224147031
19   

C        1.9639821271   -0.7656714198   -0.0891995546
C        0.7757619631   -0.4251638143    0.5574267551
C        3.0044948726   -1.3574821186    0.6319796880
C        0.6353561892   -0.6732760221    1.9257498613
C        5.1601103936   -1.5949474680    3.0414381544
C        5.0268625658   -3.9116527847    3.7766984477
C        2.8668449360   -1.6203856579    2.0047082277
C        1.6725214247   -1.2635770587    2.6578070826
C        3.9855171922   -2.2360653805    2.7606188658
N        3.9215553936   -3.5605277351    3.1647263900
O        1.5147178529   -1.4675747303    3.9997149795
S        6.2542350892   -2.6545408199    3.8894901048
H        2.0789181078   -0.5742455554   -1.1500845234
H       -0.0343434910    0.0326129041    0.0001893195
H        3.9243442087   -1.6258050744    0.1240720465
H       -0.2884216071   -0.3967535521    2.4183321860
H        5.3658846090   -0.5676842813    2.7724105906
H        5.1780011523   -4.9071609864    4.1774810176
H        0.5986605842   -1.2850015282    4.2643520544
19   

C        1.9277039081   -0.8776462727   -0.1229084550
C        0.7747820377   -0.4541734028    0.5389816417
C        2.9748307220   -1.4538122762    0.6015756345
C        0.6740498649   -0.6091673739    1.9246251659
C        5.0346359499   -1.5357496543    3.3045038239
C        5.0909982249   -3.9460803091    3.6407325569
C        2.8824623781   -1.6076483833    1.9937801459
C        1.7184311544   -1.1834384250    2.6589806755
C        3.9972624715   -2.2333371132    2.7517472240
N        4.0352778011   -3.6058348908    2.9408208167
O        1.5982187362   -1.3110852595    4.0141786870
S        6.1374462524   -2.6130253283    4.1182337059
H        2.0097195632   -0.7642936794   -1.1979537126
H       -0.0401301536   -0.0081742469   -0.0207834784
H        3.8657394079   -1.7921621046    0.0839080273
H       -0.2252322872   -0.2757681461    2.4272265582
H        5.1361649487   -0.4604650153    3.2460132219
H        5.3070104906   -4.9751213005    3.9032863584
H        0.6981596230   -1.0801036292    4.2964322071
19   

C        1.8875136451   -0.9773679875   -0.1376295294
C        0.7698223562   -0.4764374946    0.5297421564
C        2.9422993585   -1.5334563973    0.5912180014
C        0.7101111917   -0.5395490922    1.9246859432
C        4.8793921096   -1.5507291555    3.5603355391
C        5.1637182503   -3.9664357653    3.4821544788
C        2.9000273873   -1.5809635377    1.9938930511
C        1.7627685086   -1.0938961785    2.6626528570
C        4.0094630124   -2.2203129983    2.7454646706
N        4.1693332474   -3.5971346177    2.7104604217
O        1.6744222054   -1.1436981942    4.0254715924
S        5.9913039693   -2.6577138446    4.3197791920
H        1.9357224435   -0.9421513842   -1.2200834156
H       -0.0512223282   -0.0458758389   -0.0331325376
H        3.8025778154   -1.9390489027    0.0698187920
H       -0.1655765967   -0.1532832032    2.4310871683
H        4.8534936458   -0.4806611039    3.7161791703
H        5.4560871874   -5.0037332265    3.5964770832
H        0.7891936097   -0.8685475105    4.3158131836
19   

C        1.8706640649   -1.0436026181   -0.1394904803
C        0.7835169935   -0.4712290540    0.5190329208
C        2.9224645282   -1.5909023885    0.5996961126
C        0.7509740979   -0.4567223237    1.9156233936
C        4.7356093383   -1.6204902988    3.7577192146
C        5.2627156150   -3.9541875614    3.3186951071
C        2.9133908422   -1.5578393019    2.0047734382
C        1.8007401122   -1.0028698868    2.6641801094
C        4.0132735737   -2.2063006718    2.7544126991
N        4.3103826039   -3.5406842167    2.5168128188
O        1.7255565180   -0.9821723060    4.0287349089
S        5.8785389919   -2.7457346518    4.4400904879
H        1.8975178184   -1.0720297880   -1.2228765879
H       -0.0357882075   -0.0474849985   -0.0514950492
H        3.7569006433   -2.0541504045    0.0839625797
H       -0.1036582920   -0.0181976901    2.4154084411
H        4.5878430633   -0.6000560305    4.0850813875
H        5.6433453573   -4.9686084059    3.2940095402
H        0.8536309752   -0.6606115384    4.3123098280
19   

C        1.8504831609   -1.0997818871   -0.1411594821
C        0.7933559676   -0.4577053316    0.4990183742
C        2.8911550159   -1.6471191786    0.6128641100
C        0.7805746070   -0.3735707598    1.8925260835
C        4.6069467349   -1.7023109260    3.8951898774
C        5.3814315082   -3.8912204143    3.1748171758
C        2.9038884267   -1.5510405945    2.0175953122
C        1.8188613394   -0.9201350578    2.6572641841
C        3.9978860273   -2.1954652065    2.7720167351
N        4.4428247271   -3.4490842495    2.3721973756
O        1.7452301354   -0.8308895380    4.0192252315
S        5.8084712336   -2.8125357532    4.4966498287
H        1.8638919945   -1.1815935907   -1.2220730038
H       -0.0178053242   -0.0335264281   -0.0827172125
H        3.7019872637   -2.1588820207    0.1051233812
H       -0.0522448913    0.1193191191    2.3783037788
H        4.3567695381   -0.7514360037    4.3463266259
H        5.8605461898   -4.8531391911    3.0344405595
H        0.8893660721   -0.4547337515    4.2845844208
19   

C        1.8231884251   -1.1680596732   -0.1347739460
C        0.8047192906   -0.4537155839    0.4876171720
C        2.8481686073   -1.7282431218    0.6303790538
C        0.8162278070   -0.3095258100    1.8749247290
C        4.4975833258   -1.8233272528    3.9975185874
C        5.5107147511   -3.8204517279    3.0581029517
C        2.8852784093   -1.5821581813    2.0340514310
C        1.8383270413   -0.8688231825    2.6530040658
C        3.9770513763   -2.2214147237    2.7919360845
N        4.5700323002   -3.3641459487    2.2665726251
O        1.7667608009   -0.7147534292    4.0089286978
S        5.7699015043   -2.8910871111    4.5259055629
H        1.8210339942   -1.2939420352   -1.2115337515
H        0.0056199588   -0.0184825125   -0.1025935484
H        3.6287563866   -2.2855456321    0.1233824025
H        0.0123032947    0.2413687378    2.3468992998
H        4.1650448720   -0.9537485459    4.5472125228
H        6.0890419749   -4.7065020922    2.8236194192
H        0.9358665145   -0.2728065550    4.2516893213
19   

C        1.7737420123   -1.2450273838   -0.1255343683
C        0.7993052664   -0.4598967543    0.4776156898
C        2.7858149480   -1.8150648503    0.6486132215
C        0.8436133016   -0.2541237625    1.8550221664
C        4.3758244052   -1.9732648263    4.0864221336
C        5.6247307245   -3.7263346988    2.9696808157
C        2.8557750506   -1.6159827465    2.0485475311
C        1.8528328412   -0.8222540825    2.6444380713
C        3.9477419450   -2.2509626867    2.8090124676
N        4.6850494027   -3.2543645711    2.1872594916
O        1.7959783933   -0.5900180112    3.9889339124
S        5.7155665539   -2.9847068461    4.5559577609
H        1.7495830094   -1.4167628761   -1.1956801349
H        0.0103595080   -0.0155654828   -0.1194460636
H        3.5289455385   -2.4199603565    0.1404970086
H        0.0734894851    0.3548388333    2.3118010517
H        3.9576966979   -1.2148806082    4.7313754620
H        6.2991813395   -4.5157358962    2.6590878604
H        1.0021551370   -0.0722440407    4.2045606443
19   

C        1.6904807465   -1.3422036620   -0.1042466180
C        0.7646599034   -0.4925117525    0.4856441054
C        2.7059814347   -1.9085712987    0.6676015997
C        0.8634548620   -0.2161259221    1.8470695555
C        4.2373430620   -2.1651714065    4.1486914524
C        5.7281406365   -3.6102686476    2.9005253094
C        2.8292847410   -1.6439767760    2.0548688362
C        1.8779748236   -0.7775463467    2.6351328430
C        3.9262528502   -2.2756264943    2.8111664720
N        4.8000085815   -3.1118295343    2.1214577181
O        1.8832732055   -0.4405966347    3.9576896434
S        5.6381285326   -3.1102741635    4.5766703506
H        1.6265659451   -1.5668340760   -1.1629049554
H       -0.0264839037   -0.0497222645   -0.1096552979
H        3.4055404919   -2.5657750868    0.1629717848
H        0.1336708638    0.4485464522    2.2922884335
H        3.7008371129   -1.5738600223    4.8741245248
H        6.4958752425   -4.2827142790    2.5359878973
H        1.1472301119    0.1643638967    4.1501104585
