27   

C       -4.3482449986    0.0095524721    1.5992987351
C       -3.0710161919   -1.4971825999    0.2018905560
C       -3.1782182578    0.3869853116    2.2624298504
C       -1.8982546682   -1.0996955928    0.8559314085
C       -4.3105141943   -0.9378493902    0.5599144418
C       -1.9397902999   -0.1620525534    1.9030013901
C       -0.6837380593    1.5177354481    3.9256180229
C        0.8138432815    0.7248283423    1.6896324219
C       -5.5347088794   -1.3838027287   -0.1859329166
C       -6.8028352728   -0.5595854737   -0.0601155550
C       -0.1345385065   -1.2119521035    3.5232644004
O       -5.5037949183   -2.3361125323   -0.9557201020
S       -0.4131306059    0.3900996926    2.7444218868
H       -5.2817939396    0.4643135124    1.9103351311
H       -3.0106905746   -2.2291477763   -0.5979744165
H       -3.2326086703    1.1275503949    3.0550944259
H       -0.9491337138   -1.5214794223    0.5402324538
H       -0.0837169990    2.4173398487    3.9547571246
H       -1.4399750237    1.3560538951    4.6813830548
H        1.4360973289    1.5943861308    1.8548571334
H        0.9855474929    0.1015714182    0.8234219646
H       -6.5800522898    0.5001888258   -0.2099733788
H       -7.2475145750   -0.7078179198    0.9272926927
H       -7.5235249128   -0.8733741494   -0.8208966439
H        0.7450690933   -1.1348959886    4.1653870819
H       -1.0052298223   -1.4763067074    4.1261334338
H        0.0395688591   -1.9684706387    2.7571618468
27   

C       -4.3808306255   -0.0640493113    1.6965014156
C       -3.1022815143   -1.5161853936    0.2418563896
C       -3.2038943095    0.3325244122    2.3361533593
C       -1.9233067839   -1.0994888103    0.8722271441
C       -4.3439849782   -0.9957302678    0.6453361776
C       -1.9614820693   -0.1796023872    1.9356782758
C       -0.6945207613    1.5012183614    3.9502246348
C        0.7606741607    0.7825321173    1.6619663736
C       -5.5745229927   -1.4432099856   -0.0897748728
C       -6.7410593191   -0.4778210177   -0.1889649791
C       -0.0857312536   -1.2072929668    3.4894126833
O       -5.5855084100   -2.4800136588   -0.7416424891
S       -0.4270748093    0.3988583382    2.7447660124
H       -5.3214601979    0.3592429934    2.0307973855
H       -3.0482218449   -2.2319676476   -0.5729637985
H       -3.2560740785    1.0594897049    3.1414463088
H       -0.9723050158   -1.4911738724    0.5249922980
H       -0.1184394840    2.4164248672    3.9765069022
H       -1.4243233719    1.3076012411    4.7242537551
H        1.3633467766    1.6665036671    1.8232625700
H        0.9256184953    0.1765347416    0.7823054788
H       -6.3761700942    0.5378655598   -0.3639516649
H       -7.3246001185   -0.5036509145    0.7347596831
H       -7.3875082184   -0.7640654997   -1.0236364744
H        0.8090158834   -1.1172337015    4.1085157457
H       -0.9323237822   -1.5039061527    4.1113020382
H        0.0866316986   -1.9469195611    2.7065980374
27   

C       -4.3875741327   -0.1040060954    1.7676184678
C       -3.0968796649   -1.5019768800    0.2700915651
C       -3.2110788403    0.3075660364    2.3988797897
C       -1.9187355050   -1.0702919686    0.8917577127
C       -4.3422949139   -1.0194268138    0.7050634066
C       -1.9629994656   -0.1708297244    1.9728770288
C       -0.7045195889    1.5014031700    3.9997446114
C        0.7343851835    0.8523827539    1.6805728354
C       -5.5737723868   -1.4689099375   -0.0301289147
C       -6.6083132631   -0.4171163194   -0.3813399113
C       -0.0461254727   -1.1859911057    3.4840740551
O       -5.6369344159   -2.5814020054   -0.5376878967
S       -0.4303282939    0.4253966071    2.7722675238
H       -5.3363782393    0.2911531147    2.1137116319
H       -3.0431791387   -2.2013508786   -0.5588200222
H       -3.2681415425    1.0196908229    3.2169937896
H       -0.9640582544   -1.4339504380    0.5246920491
H       -0.1476255235    2.4281379110    4.0340325212
H       -1.4192567167    1.2790455530    4.7800961610
H        1.3202204625    1.7463086422    1.8488774247
H        0.9008780990    0.2643779955    0.7890867126
H       -6.1139444961    0.5193601551   -0.6534444918
H       -7.2679221723   -0.2450292774    0.4727464025
H       -7.2085122469   -0.7562641181   -1.2305136624
H        0.8551656018   -1.0883461630    4.0924438976
H       -0.8777910215   -1.5105864410    4.1121201265
H        0.1301760578   -1.9084553676    2.6862483059
27   

C       -4.4124600949   -0.1441747329    1.8728217509
C       -3.1494055623   -1.4691470829    0.2894700850
C       -3.2230506979    0.2744730103    2.4742324418
C       -1.9581648282   -1.0311757769    0.8814564735
C       -4.3862697554   -1.0286118448    0.7852454381
C       -1.9816726492   -0.1653977720    1.9906459308
C       -0.6847428124    1.4779669427    4.0170271567
C        0.6901104202    0.9055527942    1.6391667738
C       -5.6419919912   -1.4758773783    0.0858991540
C       -6.5306625868   -0.3907090430   -0.4878215952
C       -0.0050723682   -1.1864140987    3.4161808903
O       -5.7962401447   -2.6422618974   -0.2512981059
S       -0.4336773694    0.4356956320    2.7559702341
H       -5.3583837382    0.2186710808    2.2601562189
H       -3.1155636636   -2.1440340622   -0.5603136040
H       -3.2655770658    0.9610208628    3.3147668335
H       -1.0100190494   -1.3641341232    0.4708875691
H       -0.1404731199    2.4119491496    4.0566402934
H       -1.3713867639    1.2262927986    4.8135550881
H        1.2678618615    1.8041223843    1.8106641972
H        0.8381018349    0.3405973312    0.7297291514
H       -5.9178090422    0.4120515807   -0.9065510264
H       -7.1725596733    0.0170105899    0.2968340522
H       -7.1587065788   -0.8051619248   -1.2815367402
H        0.9138661082   -1.0905109082    3.9978319640
H       -0.8117353612   -1.5375615522    4.0623407726
H        0.1548890852   -1.8872809112    2.5959526656
27   

C       -4.4162467650   -0.1440837767    1.9956793155
C       -3.2100508022   -1.4342683336    0.3439659231
C       -3.2076264736    0.2644948870    2.5641900200
C       -1.9986356001   -1.0070521744    0.9026335681
C       -4.4280687429   -1.0032668278    0.8886396229
C       -1.9836673736   -0.1633076919    2.0288512826
C       -0.6196569785    1.4382080356    4.0442942140
C        0.6720079940    0.9209650292    1.6079121204
C       -5.7204695383   -1.4390049440    0.2419886151
C       -6.4470653211   -0.3930635208   -0.5772041361
C        0.0428653974   -1.2112356660    3.3622565733
O       -6.0147859229   -2.6225745819    0.1469416670
S       -0.4108372651    0.4239656895    2.7530833680
H       -5.3498856973    0.2058709624    2.4229683999
H       -3.2063686189   -2.0949172414   -0.5172288037
H       -3.2222022697    0.9327368208    3.4202848709
H       -1.0650411677   -1.3318761919    0.4539899006
H       -0.0768233840    2.3729648490    4.0849399183
H       -1.2771614405    1.1671470614    4.8588858483
H        1.2530616215    1.8176115421    1.7783681075
H        0.7895148988    0.3759178933    0.6820579657
H       -5.7264924779    0.2229306074   -1.1218711618
H       -7.0405511447    0.2458213851    0.0813571937
H       -7.1117842790   -0.8792968617   -1.2968378472
H        0.9806268710   -1.1257581922    3.9147611662
H       -0.7409315604   -1.5787381836    4.0272324502
H        0.1765019485   -1.8933878297    2.5218204990
27   

C       -4.4218068514   -0.1299400638    2.0714601585
C       -3.2555117368   -1.3273542539    0.3272788027
C       -3.2015275699    0.2528214440    2.6321706449
C       -2.0313404413   -0.9273978996    0.8792792366
C       -4.4606999716   -0.9138963362    0.9108675281
C       -1.9902487972   -0.1401130132    2.0447325679
C       -0.5783585449    1.3797949898    4.0917417163
C        0.6633376186    0.9460552912    1.6129367211
C       -5.7796197262   -1.3516149503    0.3156984732
C       -6.3687779973   -0.4433651550   -0.7417305889
C        0.0540092844   -1.2453944956    3.2988653028
O       -6.3776703402   -2.3379802173    0.7215585865
S       -0.4011800731    0.4137200075    2.7596861502
H       -5.3476863291    0.1802102372    2.5446132273
H       -3.2667662139   -1.9500226138   -0.5611214620
H       -3.1983892460    0.8705748712    3.5254411300
H       -1.1074915713   -1.2306389887    0.3966035950
H       -0.0281035807    2.3087675708    4.1572483490
H       -1.2229056488    1.0830259123    4.9077391823
H        1.2535660772    1.8321588172    1.8056546360
H        0.7602201468    0.4351553847    0.6655393967
H       -5.7591654551   -0.4866487355   -1.6478898212
H       -6.3951078319    0.5863679690   -0.3755821400
H       -7.3874567849   -0.7621331711   -0.9803638005
H        1.0031165389   -1.1857904070    3.8351562176
H       -0.7187542609   -1.6325351645    3.9656668736
H        0.1660686310   -1.8967296728    2.4312941092
27   

C       -4.4381864152   -0.1043957881    2.1162847699
C       -3.2957234790   -1.2187368276    0.3057521522
C       -3.2118824659    0.2650476010    2.6719278346
C       -2.0647076707   -0.8327872617    0.8531082357
C       -4.4952186106   -0.8308238447    0.9190062281
C       -2.0084860202   -0.0931189763    2.0483146537
C       -0.5688485412    1.3602738798    4.1262770917
C        0.6429097572    1.0033088157    1.6199613259
C       -5.8240149354   -1.2863909270    0.3672960829
C       -6.3018510717   -0.6052973810   -0.8974944316
C        0.0479068743   -1.2375123515    3.2423994853
O       -6.5889509671   -1.9669943088    1.0367173059
S       -0.4109122121    0.4383516263    2.7610556009
H       -5.3590124651    0.1686839926    2.6218424150
H       -3.3141639882   -1.8101323168   -0.6034105996
H       -3.1990315495    0.8418884348    3.5920229719
H       -1.1467805585   -1.1120605364    0.3452940458
H       -0.0126369968    2.2835324209    4.2169991558
H       -1.2071744280    1.0404554585    4.9384560844
H        1.2400545751    1.8795083012    1.8353331718
H        0.7260735686    0.5240536621    0.6549295205
H       -5.8035521540   -1.0439847182   -1.7654048446
H       -6.0750489509    0.4633396191   -0.8544732072
H       -7.3827970604   -0.7333577143   -1.0039878105
H        1.0038056869   -1.1961353815    3.7682472140
H       -0.7170656894   -1.6439391999    3.9067396806
H        0.1475010423   -1.8616134933    2.3535684835
27   

C       -4.4480349807   -0.0619905454    2.1443673707
C       -3.3335113577   -1.1196901758    0.2851788194
C       -3.2141413007    0.2880994154    2.6950032821
C       -2.0943833611   -0.7526031465    0.8277401049
C       -4.5260980413   -0.7493738575    0.9242020106
C       -2.0202040564   -0.0515273539    2.0446542799
C       -0.5494946384    1.3308381241    4.1501978565
C        0.6273936421    1.0555113244    1.6170527540
C       -5.8642697420   -1.1891262629    0.3924812833
C       -6.2258831995   -0.7560313169   -1.0135567274
C        0.0510642269   -1.2358872427    3.1728433802
O       -6.7240602331   -1.6374170307    1.1391611662
S       -0.4124981730    0.4551020132    2.7527389232
H       -5.3609191506    0.1965138591    2.6720809913
H       -3.3612007655   -1.6831985370   -0.6411382661
H       -3.1886872446    0.8353424827    3.6327565018
H       -1.1837623189   -1.0169421902    0.2992005736
H        0.0111695021    2.2487008797    4.2649929847
H       -1.1788832572    0.9860463658    4.9591395890
H        1.2302757167    1.9221974693    1.8538885797
H        0.6950477574    0.6096500283    0.6349691459
H       -5.7533285591   -1.4207284663   -1.7406757974
H       -5.8870501195    0.2688319645   -1.1870932039
H       -7.3105997728   -0.7960473581   -1.1477923386
H        1.0142786460   -1.2121272250    3.6863091258
H       -0.7048892837   -1.6630275665    3.8345065598
H        0.1375906491   -1.8308625468    2.2629526468
27   

C       -4.4334850319   -0.0574742471    2.2242456880
C       -3.3602632500   -1.0355993572    0.3005023671
C       -3.1888948971    0.2789366068    2.7582712620
C       -2.1101706853   -0.6824042986    0.8274340501
C       -4.5415354679   -0.7020477168    0.9814922049
C       -2.0096368938   -0.0290386876    2.0682098970
C       -0.4957541024    1.2915321994    4.1834895525
C        0.6289619039    1.0926990443    1.6192331021
C       -5.8945311045   -1.1144417613    0.4730791262
C       -6.1818128733   -0.9302841964   -1.0044203437
C        0.0832375233   -1.2438590129    3.1171405362
O       -6.8095470202   -1.3683808926    1.2457715877
S       -0.3880600622    0.4588244324    2.7574674180
H       -5.3327851564    0.1816209821    2.7838395540
H       -3.4017439563   -1.5611652670   -0.6471750856
H       -3.1444505326    0.7920170793    3.7144443180
H       -1.2111266440   -0.9198506935    0.2672282187
H        0.0680062270    2.2052915249    4.3147010414
H       -1.1092300247    0.9229631690    4.9941605839
H        1.2371680372    1.9517955307    1.8697467662
H        0.6764715452    0.6766104004    0.6230295600
H       -5.7836751779   -1.7767769126   -1.5692158173
H       -5.7225792220   -0.0051527870   -1.3630398085
H       -7.2617715921   -0.8717283192   -1.1676473184
H        1.0568204502   -1.2353970107    3.6111549282
H       -0.6591480829   -1.6905602966    3.7812543422
H        0.1503820716   -1.8112041609    2.1881614179
27   

C       -4.2216280555    0.7045734584    1.5244312315
C       -3.6042148101   -1.5195377934    0.8303487125
C       -2.9480575719    0.9003884723    2.0599829775
C       -2.3187731911   -1.3163954011    1.3516283453
C       -4.5683908196   -0.5000482721    0.8896741957
C       -1.9788189012   -0.1072096519    1.9824477164
C       -0.0874229207    1.6927954120    3.2841571084
C        0.8914081273   -0.3520060981    1.6290983665
C       -5.9662549242   -0.6944620598    0.3764169724
C       -6.1806562670   -1.6567428589   -0.7774529522
C       -0.5191320458   -0.9913255019    3.9952981044
O       -6.8858918362    0.0222236784    0.7505455702
S       -0.2989589243    0.1816342868    2.6438524368
H       -4.9553267343    1.5012049391    1.6035149895
H       -3.8325613789   -2.4753740019    0.3723598498
H       -2.7119225704    1.8507805330    2.5296221951
H       -1.5794402413   -2.1065160344    1.2644818799
H        0.7842814455    2.2729567740    3.0129638801
H       -0.8019436255    2.1009069210    3.9858004943
H        1.7821936540    0.2470754184    1.4936798518
H        0.7807058160   -1.2765545037    1.0806597475
H       -6.2185171836   -2.6831265543   -0.4039153058
H       -5.3703761301   -1.5600373763   -1.5050940274
H       -7.1261255658   -1.4279341841   -1.2777335553
H        0.3794978013   -0.9758082574    4.6151583822
H       -1.3812022368   -0.6926915753    4.5947426838
H       -0.6667390110   -1.9938829916    3.5922783873
27   

C       -4.2140575045    0.7387862546    1.5172857846
C       -3.5870721371   -1.4616152696    0.7584611866
C       -2.9455709919    0.9197332597    2.0695156489
C       -2.3065542234   -1.2719363627    1.2969868572
C       -4.5563186571   -0.4484044176    0.8468584952
C       -1.9743537926   -0.0834878381    1.9694186888
C       -0.0977072293    1.6763267303    3.3458891319
C        0.8995108503   -0.3082242440    1.6295109651
C       -5.9440993839   -0.6186593543    0.2998003450
C       -6.2119255793   -1.7638552265   -0.6597871918
C       -0.5264890307   -1.0312556365    3.9615383169
O       -6.8295279202    0.1917067149    0.5426309374
S       -0.3001861888    0.1875974099    2.6524006093
H       -4.9463037785    1.5352196904    1.6107821338
H       -3.7985333994   -2.4035669788    0.2657640438
H       -2.7143181525    1.8564012717    2.5682864330
H       -1.5638268031   -2.0562734091    1.1888407141
H        0.7749098237    2.2672382394    3.1022174467
H       -0.8193811222    2.0588776424    4.0545691162
H        1.7899842799    0.2969776023    1.5221148804
H        0.7951401298   -1.2131619424    1.0481096078
H       -6.2148329212   -2.7127960510   -0.1173988521
H       -5.4496615362   -1.7862876276   -1.4431448594
H       -7.1890984055   -1.6270086661   -1.1321057670
H        0.3675536434   -1.0341042601    4.5881778092
H       -1.3938603773   -0.7556662299    4.5643427438
H       -0.6678240388   -2.0199643505    3.5235860445
27   

C       -4.2221697816    0.7695375370    1.4980517641
C       -3.5737315108   -1.4015995069    0.6760367570
C       -2.9613111696    0.9394708881    2.0708930567
C       -2.3009253784   -1.2223574782    1.2361146568
C       -4.5521734655   -0.3994649591    0.7899398255
C       -1.9833868097   -0.0547702898    1.9505202579
C       -0.1275185877    1.6757983921    3.3911401511
C        0.8948108867   -0.2586019075    1.6326742678
C       -5.9256826855   -0.5466895307    0.2006526628
C       -6.2678760456   -1.8241180250   -0.5443273111
C       -0.5508315500   -1.0488985590    3.9303066416
O       -6.7691636117    0.3332908344    0.3185551552
S       -0.3169501708    0.2052306193    2.6564491252
H       -4.9572183360    1.5618964387    1.6034482058
H       -3.7665862675   -2.3246796052    0.1420825173
H       -2.7403102976    1.8621947988    2.5994069152
H       -1.5511717402   -1.9970265335    1.1084180188
H        0.7448920025    2.2763901923    3.1715007572
H       -0.8576682119    2.0369158509    4.1023416050
H        1.7835418615    0.3530007381    1.5498284905
H        0.8003349076   -1.1483689154    1.0266900170
H       -6.1708770277   -2.6853655715    0.1217808143
H       -5.6071018306   -1.9439006288   -1.4069096316
H       -7.3006190064   -1.7758222452   -0.9018775203
H        0.3377555822   -1.0659449162    4.5644378253
H       -1.4242771868   -0.7920290761    4.5325745001
H       -0.6852848549   -2.0258006260    3.4645547215
27   

C       -4.1911949691    0.7779209003    1.4568469046
C       -3.5194672300   -1.3742824164    0.6032284418
C       -2.9428117434    0.9388723507    2.0588723711
C       -2.2586045409   -1.2034495783    1.1921572948
C       -4.5042528527   -0.3794008216    0.7230724694
C       -1.9596544795   -0.0503969618    1.9379512557
C       -0.1440860834    1.6508945600    3.4619752725
C        0.9249740740   -0.2172730554    1.6606373117
C       -5.8567386907   -0.5116397673    0.0845874935
C       -6.2946459247   -1.8770409638   -0.4136132894
C       -0.5480396468   -1.0931823475    3.9092040637
O       -6.6435559325    0.4262967052    0.0574777445
S       -0.3073320697    0.2023490356    2.6788448623
H       -4.9292742780    1.5680032960    1.5580681259
H       -3.6992353613   -2.2806112978    0.0366132629
H       -2.7342798925    1.8521104432    2.6085511418
H       -1.5026704584   -1.9712593231    1.0596580278
H        0.7256898051    2.2662869600    3.2752955309
H       -0.8893271936    1.9828209944    4.1717489322
H        1.8089130355    0.4048384938    1.6115492747
H        0.8481237841   -1.0873741708    1.0243431119
H       -6.1083881891   -2.6363296955    0.3504514834
H       -5.7537586047   -2.1310432287   -1.3288906935
H       -7.3663245224   -1.8623041655   -0.6326321483
H        0.3301212160   -1.1200987155    4.5573590871
H       -1.4342062399   -0.8646167207    4.5042170333
H       -0.6632940639   -2.0565976561    3.4113608680
27   

C       -4.2158131267    0.7548733430    1.4525880336
C       -3.5019315319   -1.3574016490    0.5359401149
C       -2.9775061818    0.9122843802    2.0764620232
C       -2.2512624117   -1.1902784205    1.1468540916
C       -4.5035223185   -0.3835481669    0.6811245663
C       -1.9789078224   -0.0593496179    1.9358958936
C       -0.2058175100    1.6155239840    3.5379193448
C        0.9115842195   -0.1767295833    1.6893701178
C       -5.8368665386   -0.5055728006    0.0008454661
C       -6.3846560537   -1.8965271660   -0.2626681008
C       -0.5756256021   -1.1467867278    3.8886634622
O       -6.5557804654    0.4714151782   -0.1658404291
S       -0.3391792761    0.1920272738    2.7047676103
H       -4.9654586896    1.5326157222    1.5636945781
H       -3.6689187265   -2.2406465874   -0.0703538980
H       -2.7878521317    1.8104120756    2.6570033849
H       -1.4821854746   -1.9414853073    0.9961039523
H        0.6580440378    2.2480076715    3.3836409638
H       -0.9648528108    1.9140508977    4.2478791134
H        1.7877191470    0.4580201975    1.6730887303
H        0.8544687520   -1.0254082312    1.0227737795
H       -6.1614573009   -2.5567407826    0.5796198943
H       -5.9420869214   -2.3031404386   -1.1755406302
H       -7.4702156223   -1.8477961857   -0.3881680824
H        0.2954502394   -1.1831841543    4.5458530474
H       -1.4716044548   -0.9502128088    4.4803677011
H       -0.6716193439   -2.0945634039    3.3578005394
27   

C       -4.2040583181    0.7714884754    1.4036960331
C       -3.4455602006   -1.3090920752    0.4516645659
C       -2.9793056570    0.9299170811    2.0539297078
C       -2.2080302090   -1.1409161404    1.0882499120
C       -4.4628448900   -0.3540081309    0.6051976206
C       -1.9653850271   -0.0256581953    1.9091678799
C       -0.2484498303    1.6281978124    3.5923912673
C        0.9305558048   -0.0807649131    1.7040849942
C       -5.7763609643   -0.4697080041   -0.1167952431
C       -6.4578904304   -1.8245601312   -0.1369137747
C       -0.5686711581   -1.1500742902    3.8476874745
O       -6.3976948978    0.5277921740   -0.4594104209
S       -0.3422809041    0.2307840577    2.7110472833
H       -4.9653797845    1.5381056236    1.5121059680
H       -3.5972667954   -2.1759684162   -0.1820523325
H       -2.8108546695    1.8175926603    2.6566871009
H       -1.4259583574   -1.8773383581    0.9316339584
H        0.6059978763    2.2807487762    3.4732144140
H       -1.0243185929    1.8896315219    4.2987614518
H        1.7952638328    0.5693804481    1.7234456756
H        0.8984697248   -0.9063020892    1.0073972641
H       -6.3135032533   -2.3312862723    0.8209470411
H       -6.0414148392   -2.4380383470   -0.9395978770
H       -7.5306600454   -1.6975386131   -0.3085037828
H        0.2935739046   -1.1904455809    4.5162042761
H       -1.4767424530   -0.9904544849    4.4319837283
H       -0.6375992799   -2.0819380672    3.2854052255
27   

C       -4.1849339387    0.7088301737    1.3707905054
C       -3.3570585118   -1.3266086806    0.3753639737
C       -2.9762203650    0.8780102533    2.0483182992
C       -2.1359416886   -1.1468226059    1.0395821690
C       -4.3983977144   -0.4013977464    0.5408214817
C       -1.9367193707   -0.0496738418    1.8966914545
C       -0.2924566558    1.5935614119    3.6617284594
C        0.9641185435   -0.0292283804    1.7475554199
C       -5.6904743889   -0.5369377405   -0.2206793346
C       -6.4898002691   -1.8063875157   -0.0059985335
C       -0.5487272962   -1.1971595321    3.8279665073
O       -6.2125763110    0.4327104069   -0.7540218088
S       -0.3355786177    0.2220230069    2.7368435884
H       -4.9672790555    1.4536545732    1.4797055483
H       -3.4805876416   -2.1761637020   -0.2875350329
H       -2.8393577927    1.7528014335    2.6773363055
H       -1.3328810572   -1.8588175759    0.8763694382
H        0.5491769668    2.2682446199    3.5806709934
H       -1.0887440620    1.8160018350    4.3586371361
H        1.8134123315    0.6387011258    1.8053779927
H        0.9647256738   -0.8325829524    1.0246600335
H       -6.4254802081   -2.1164037395    1.0403464924
H       -6.0993921874   -2.6030192407   -0.6438737825
H       -7.5397360495   -1.6318092233   -0.2579074994
H        0.3016458057   -1.2364255906    4.5115870587
H       -1.4712449230   -1.0772197435    4.3989350223
H       -0.5837880783   -2.1132694073    3.2373578013
27   

C       -4.1889518842    0.6730525814    1.3286452158
C       -3.3027936965   -1.3228581968    0.3001728804
C       -2.9933525388    0.8519567495    2.0272429848
C       -2.0950350380   -1.1320512569    0.9850701297
C       -4.3627136529   -0.4216210022    0.4710180611
C       -1.9318197817   -0.0502621348    1.8695112498
C       -0.3537830484    1.5774596586    3.7080041063
C        0.9695357366    0.0524953197    1.7590873661
C       -5.6446736539   -0.5849912032   -0.3096826779
C       -6.5731713647   -1.6943565590    0.1375361557
C       -0.5342726370   -1.2223910858    3.7814126743
O       -6.0403754852    0.2879540235   -1.0694397465
S       -0.3486671582    0.2364104197    2.7384313843
H       -4.9894069374    1.3972203072    1.4424410693
H       -3.4031092187   -2.1596636434   -0.3827674599
H       -2.8833319596    1.7144832985    2.6781130574
H       -1.2748556768   -1.8231232043    0.8171866893
H        0.4710951610    2.2756705246    3.6610792711
H       -1.1649052591    1.7562365717    4.4003345226
H        1.8007512423    0.7390475962    1.8511539040
H        0.9992579746   -0.7246676301    1.0086352269
H       -6.5847986270   -1.7547956998    1.2290002741
H       -6.2337965205   -2.6486678674   -0.2725006726
H       -7.5887122320   -1.4950946515   -0.2163351283
H        0.3085264233   -1.2591592136    4.4745023464
H       -1.4667320447   -1.1471351170    4.3437476787
H       -0.5352490428   -2.1199437084    3.1619806525
27   

C       -4.2082791574    0.6010580249    1.2988678516
C       -3.2460152111   -1.3239299654    0.2012285185
C       -3.0242201671    0.7911032319    2.0146232000
C       -2.0513007966   -1.1209150648    0.9046717134
C       -4.3294766277   -0.4541858033    0.3850354507
C       -1.9309693947   -0.0675982025    1.8298927777
C       -0.4193054219    1.5464701334    3.7343516656
C        0.9679377895    0.1183166253    1.7565764761
C       -5.6149615507   -0.6744051349   -0.3797598735
C       -6.6451603233   -1.5605455924    0.2877461745
C       -0.5229353324   -1.2584630606    3.7212636879
O       -5.7671026776   -0.2655902578   -1.5218662661
S       -0.3656168382    0.2359002524    2.7250592374
H       -5.0360838580    1.2866521908    1.4465841122
H       -3.3206381218   -2.1403050698   -0.5096637854
H       -2.9488592339    1.6269257306    2.7041018795
H       -1.2093477551   -1.7811258205    0.7210928086
H        0.3858148122    2.2687299712    3.7170227138
H       -1.2414405822    1.6810279004    4.4236184348
H        1.7786434520    0.8243738292    1.8788305160
H        1.0279235043   -0.6351560245    0.9840303269
H       -7.1072946966   -1.0257753454    1.1214053006
H       -6.1688593804   -2.4698565264    0.6635283673
H       -7.4200667174   -1.8372345769   -0.4328557115
H        0.3139784035   -1.2948891060    4.4214665297
H       -1.4622942778   -1.2246886907    4.2760432441
H       -0.4948169629   -2.1362388779    3.0746481470
27   

C       -4.2110759636    0.5283683594    1.3014565206
C       -3.1639766785   -1.3300375306    0.1640888181
C       -3.0404193361    0.7458747373    2.0317043384
C       -1.9839213146   -1.0983213797    0.8826904903
C       -4.2782694235   -0.5000400064    0.3514471683
C       -1.9121975489   -0.0636236285    1.8338458315
C       -0.4840319339    1.5541811274    3.7977549668
C        0.9770759066    0.2409705437    1.7940129483
C       -5.5526347132   -0.7931453204   -0.4023735752
C       -6.6777805187   -1.4133370126    0.4002738803
C       -0.4731172297   -1.2515963357    3.7047108650
O       -5.5777111771   -0.8105222514   -1.6251084324
S       -0.3680812378    0.2759136188    2.7527183521
H       -5.0689229527    1.1707321974    1.4694085816
H       -3.2066951317   -2.1357243962   -0.5620448816
H       -3.0041295062    1.5628585333    2.7464678990
H       -1.1170824008   -1.7235760904    0.6927410306
H        0.2906484880    2.3091358646    3.8078595906
H       -1.3158725317    1.6346039940    4.4838003193
H        1.7571098302    0.9756931983    1.9436732278
H        1.0742524405   -0.4873512846    1.0013351486
H       -7.2248293688   -0.6326328678    0.9344148037
H       -6.2734902759   -2.1279749018    1.1220274971
H       -7.3666902496   -1.9374707149   -0.2682192982
H        0.3582015212   -1.2741148531    4.4121272861
H       -1.4180575878   -1.2721452964    4.2505751833
H       -0.4031730025   -2.1087181173    3.0339735323
27   

C       -4.2214441935    0.4386405097    1.3291458976
C       -3.1124549210   -1.3531654813    0.1398591527
C       -3.0550859265    0.6788814118    2.0595028997
C       -1.9386221515   -1.0973438266    0.8599492089
C       -4.2548099593   -0.5660383003    0.3514405747
C       -1.8994379525   -0.0843470862    1.8360837403
C       -0.5179331413    1.5384189881    3.8281348230
C        0.9770191064    0.3175492924    1.7912874153
C       -5.5109527480   -0.9022391278   -0.4071604098
C       -6.7359247782   -1.2563795636    0.4126320418
C       -0.4141401845   -1.2640198135    3.6755496982
O       -5.4753421281   -1.1660971726   -1.6016138122
S       -0.3635143807    0.2863504596    2.7566188699
H       -5.1000655140    1.0453300901    1.5200008188
H       -3.1297146095   -2.1437988256   -0.6040671399
H       -3.0440828464    1.4775193334    2.7955062624
H       -1.0515162187   -1.6874507442    0.6519819233
H        0.2296699755    2.3199870123    3.8490312494
H       -1.3472819473    1.5751641126    4.5208765679
H        1.7313657158    1.0764720754    1.9514059005
H        1.0960575445   -0.3920865711    0.9847418423
H       -7.2493659914   -0.3438493219    0.7251799024
H       -6.4423406444   -1.8273723158    1.2974498369
H       -7.4216460880   -1.8624528003   -0.1863035398
H        0.4212361838   -1.2751108071    4.3784392600
H       -1.3550242365   -1.3270395370    4.2251571944
H       -0.3203651961   -2.1037160599    2.9859032248
27   

C       -4.2961777283    0.3516276064    1.3413964725
C       -3.1272404915   -1.3842180745    0.1243676548
C       -3.1325782297    0.6314977480    2.0621538880
C       -1.9576997503   -1.0869006324    0.8350550120
C       -4.3010067146   -0.6484120983    0.3566431149
C       -1.9499236724   -0.0832402160    1.8211868862
C       -0.6203559346    1.5624828509    3.8290299909
C        0.9055696463    0.4437545106    1.7570500954
C       -5.5420513108   -1.0362612518   -0.3973081660
C       -6.8409699635   -1.1209980262    0.3814338932
C       -0.3964277494   -1.2300867966    3.6259119026
O       -5.4769541397   -1.5053650558   -1.5263272414
S       -0.4223210198    0.3368927951    2.7343017582
H       -5.1934851039    0.9241974465    1.5491195345
H       -3.1166253490   -2.1705109361   -0.6244850276
H       -3.1456283134    1.4230704186    2.8057404883
H       -1.0498415091   -1.6390305882    0.6128596086
H        0.0925834910    2.3755729050    3.8568733519
H       -1.4432138660    1.5503403257    4.5303540287
H        1.6276800696    1.2320967968    1.9234719848
H        1.0472272229   -0.2462030560    0.9371749708
H       -7.2846374584   -0.1265036539    0.4728438118
H       -6.6555490429   -1.5299918442    1.3781934324
H       -7.5443406991   -1.7757791206   -0.1409754136
H        0.4443713986   -1.2163386354    4.3222506345
H       -1.3290306635   -1.3447129093    4.1812843772
H       -0.2710821323   -2.0527434038    2.9209052382
27   

C       -4.2787050173    0.2830130727    1.3649580299
C       -3.0656867710   -1.3854433415    0.0992538722
C       -3.1222049380    0.5729613319    2.0928697589
C       -1.9038162274   -1.0768733779    0.8177225868
C       -4.2621715046   -0.6938405679    0.3547484390
C       -1.9217246123   -0.1029385208    1.8324457912
C       -0.6370745958    1.5198010540    3.8864635325
C        0.9174322910    0.5027905857    1.7836345355
C       -5.4874695608   -1.0830761863   -0.4210336051
C       -6.8421701634   -0.9075195046    0.2405136241
C       -0.3378428352   -1.2599884928    3.6038868607
O       -5.4039920784   -1.6947515737   -1.4787387996
S       -0.4056288791    0.3309869896    2.7581668468
H       -5.1855425812    0.8325005411    1.5917141423
H       -3.0296889991   -2.1498206278   -0.6712313832
H       -3.1552544984    1.3432876118    2.8578534373
H       -0.9816520565   -1.5975103822    0.5790375583
H        0.0515659025    2.3525890382    3.9355262448
H       -1.4572853212    1.4637908987    4.5887809900
H        1.6160696678    1.3075120130    1.9705767840
H        1.0787747579   -0.1611934439    0.9461467817
H       -7.1632146072    0.1339954257    0.1583054310
H       -6.7879556326   -1.1927985465    1.2944808279
H       -7.5804723826   -1.5446773980   -0.2549481384
H        0.5021854755   -1.2441020732    4.3011042337
H       -1.2671327912   -1.4156692948    4.1548360793
H       -0.1906213615   -2.0581778288    2.8753627908
27   

C       -4.2962944495    0.1855078271    1.4149254324
C       -3.0580998122   -1.4288913767    0.1066182327
C       -3.1352433727    0.5018392318    2.1242656181
C       -1.8925460339   -1.0932495791    0.8066030749
C       -4.2734160238   -0.7826666104    0.3939489345
C       -1.9203044163   -0.1332829289    1.8335195041
C       -0.6487501532    1.5038583221    3.8829563167
C        0.8951114341    0.5650892975    1.7364843149
C       -5.4960897906   -1.1869897160   -0.3779003455
C       -6.8562215643   -0.7616630620    0.1442899676
C       -0.2655905313   -1.2622430346    3.5577387982
O       -5.4240077799   -1.9285338719   -1.3501216886
S       -0.4007889909    0.3367520773    2.7356234753
H       -5.2094989755    0.7107498481    1.6702672296
H       -3.0095161221   -2.1816727582   -0.6745086597
H       -3.1768280483    1.2622828451    2.8986782133
H       -0.9596123824   -1.5817844941    0.5431926132
H        0.0112584278    2.3597708870    3.9273473317
H       -1.4508237016    1.4108249199    4.6021158873
H        1.5688665715    1.3919240541    1.9181918049
H        1.0624370999   -0.0842746813    0.8887769250
H       -6.9989600869    0.3098731869   -0.0177943847
H       -6.9398051591   -0.9891156637    1.2102663044
H       -7.6419548982   -1.3049438760   -0.3887432144
H        0.5870534096   -1.2286434332    4.2388134158
H       -1.1784601228   -1.4550331000    4.1242135987
H       -0.1074887137   -2.0456041298    2.8155224717
27   

C       -4.3245499322    0.0955201663    1.5115971561
C       -3.0507774419   -1.4597438246    0.1661995464
C       -3.1613646314    0.4574016222    2.1949873932
C       -1.8842514174   -1.0781738140    0.8406443624
C       -4.2860644653   -0.8679406952    0.4859563786
C       -1.9280763807   -0.1243614557    1.8725839575
C       -0.6794620744    1.5609061389    3.8959897373
C        0.8525854330    0.6891748599    1.7130510782
C       -5.5055591273   -1.3108677551   -0.2699716271
C       -6.8432210348   -0.6783921397    0.0675495393
C       -0.1909588946   -1.1878541494    3.5560886481
O       -5.4431348218   -2.1685701405   -1.1422982045
S       -0.4090799593    0.4057986420    2.7415535049
H       -5.2515264909    0.5799805027    1.7956686356
H       -2.9876162949   -2.2059579696   -0.6201596577
H       -3.2167816846    1.2116473174    2.9745701426
H       -0.9380251331   -1.5258107995    0.5530787495
H       -0.0562838761    2.4446166076    3.9254774938
H       -1.4590184429    1.4329996897    4.6343154490
H        1.4938776750    1.5445317699    1.8795874387
H        1.0288903404    0.0467061383    0.8619319156
H       -6.8021417637    0.4001160339   -0.1061369248
H       -7.0993652621   -0.8766865155    1.1115489829
H       -7.6236359445   -1.1043606491   -0.5697969148
H        0.6746345516   -1.1211131360    4.2181083088
H       -1.0824416733   -1.4184606814    4.1421824743
H       -0.0181996931   -1.9628264340    2.8083422842
