56

C      3.71510   -6.69407   -0.43318
C      3.43349   -7.96193   -0.90321
C     -1.94266   -9.80537    1.96618
C     -0.99712  -11.42582    0.40129
C     -0.65365   -9.50645    2.41887
C      0.28927  -11.12286    0.85919
C      4.27561   -2.01464   -1.01232
C      1.93685   -2.28440   -0.48445
C      3.02620   -7.30941    1.77677
C      3.52474   -6.33245    0.92492
C      4.58288   -3.10162   -0.18195
C      2.22703   -3.37784    0.33831
C      3.56563   -3.78783    0.51580
C      2.92476   -9.02595   -0.06016
C      2.95096   -1.58765   -1.15532
C     -2.08136  -10.76216    0.96525
C      0.44651  -10.16562    1.86662
C      2.74520   -8.61006    1.31778
C      4.56510    1.02297   -2.41139
C      6.03624   -3.52421   -0.07163
C      1.09691   -4.10174    1.03801
C      3.13518    1.14866   -0.28592
C      2.14118    1.67952   -2.53703
C      3.88622   -4.94681    1.44548
C      3.13256    0.79281   -1.77640
O      2.64554  -10.18193   -0.50713
O      5.07646    0.08804   -3.07767
O      5.01429    2.18386   -2.18628
O      1.87222   -9.05062    3.77201
O      2.85612  -11.03107    2.52817
O      2.56883   -0.54923   -1.96438
F     -3.34312  -11.06411    0.51949
S      2.10016   -9.76296    2.48644
H      4.07037   -5.93493   -1.12911
H      3.57393   -8.20949   -1.95376
H     -2.82109   -9.31247    2.37275
H     -1.16002  -12.15514   -0.38710
H     -0.48998   -8.77277    3.20188
H      1.17328  -11.57746    0.42783
H      5.03789   -1.49198   -1.58194
H      0.91011   -1.94948   -0.61642
H      2.84010   -7.08218    2.82388
H      6.43977   -3.34378    0.93337
H      6.16991   -4.59122   -0.28355
H      6.64810   -2.95840   -0.77927
H      1.07348   -5.16238    0.76744
H      1.20247   -4.06161    2.13009
H      0.13113   -3.65602    0.77947
H      2.12916    1.03946    0.14118
H      3.47828    2.17912   -0.17631
H      3.81677    0.50213    0.27472
H      1.13626    1.59844   -2.10169
H      2.09247    1.36002   -3.58348
H      2.48187    2.71658   -2.50038
H      3.36508   -4.80005    2.40013
H      4.95302   -4.92094    1.69328
