18   
Generated by ForceBalance from scan.xyz: Frame 1 of 24
C        0.3290803382   -0.6502600743   -1.3635043721
C        0.0472832773    1.0385751206    1.8407782738
C        0.5957609130    0.5449972491    3.8872371327
C       -1.4936312084    1.4706240900   -0.1331325669
C       -0.1196652398    0.9866951261    0.3448829234
N        0.4514760255   -0.8419944801   -2.5103371317
N        0.6600827742    0.1289554501    2.5335989853
N       -0.4013562854    2.1189535308    2.5800771251
N       -0.2275417337    1.7107070646    3.9241031004
N        0.1179625334   -0.4082926052   -0.0605788600
O        1.1238924074    0.0439718676    4.8557223469
H       -2.2942384537    0.8922801648    0.3366725570
H       -1.6307225220    2.5362499927    0.0779334737
H       -1.5682525527    1.3419900885   -1.2156862492
H        0.6528841678    1.6452050170   -0.0788156277
H       -1.3380203403    2.4625616404    2.3779334267
H        0.0997457951    2.4508336175    4.5396698067
H        0.6891967539   -0.9357293537    0.5990490813
18   
Generated by ForceBalance from scan.xyz: Frame 2 of 24
C        0.5147748711   -0.5968661574   -1.3425334157
C       -0.0041087684    1.0147493442    1.8244993234
C        0.5012206902    0.4744384549    3.8710523389
C       -1.6032395081    1.4402986231   -0.1011719748
C       -0.2093146553    0.9682671827    0.3332178038
N        0.8740004492   -0.7305655416   -2.4469626825
N        0.5038577697    0.0444109098    2.5201040351
N       -0.3154376524    2.1449746615    2.5593134843
N       -0.1790067570    1.7289870343    3.9056731567
N        0.0361757357   -0.4190152923   -0.0995676900
O        0.9753933712   -0.0789979662    4.8386683428
H       -2.3819779477    0.8451619431    0.3835601422
H       -1.7540228532    2.5013337301    0.1259984989
H       -1.7014003811    1.3209091903   -1.1828762009
H        0.5426364794    1.6366325401   -0.1081471785
H       -1.2049357962    2.5991045255    2.3626281991
H        0.2400512346    2.4297987259    4.5116790899
H        0.4732686879   -0.9907882679    0.6246208983
18   
Generated by ForceBalance from scan.xyz: Frame 3 of 24
C        1.5564532868   -0.6998765936   -1.0051616307
C        0.0121750663    0.9579246511    1.7015954939
C       -0.3566496661    0.3379195679    3.7540374397
C       -0.8795214534    1.5649760528   -0.5717786219
C        0.2826771616    0.9438760865    0.2196247695
N        2.4292611297   -0.8853402784   -1.7611464171
N       -0.1405461197   -0.1076163717    2.4251434342
N       -0.1476241955    2.1476185515    2.3910056015
N       -0.1766637200    1.7541174754    3.7513044363
N        0.5217434496   -0.4511507245   -0.1882272323
O       -0.6465880622   -0.3178304267    4.7305011243
H       -1.8008205207    1.0064965485   -0.3876808012
H       -1.0343330737    2.6097235627   -0.2857521986
H       -0.6501822006    1.5213657136   -1.6392132887
H        1.1918635791    1.5299330946    0.0348749339
H        0.5220867532    2.8901522777    2.1964052207
H       -0.8462305050    2.2730526303    4.3137095820
H        0.3764988520   -1.1247658617    0.5641215895
18   
Generated by ForceBalance from scan.xyz: Frame 4 of 24
C        1.6943937284   -0.6632412836   -0.8502540282
C       -0.0014992907    0.9752810957    1.6579175895
C       -0.4453476108    0.3560504896    3.6947570954
C       -1.0051859728    1.5205881092   -0.5701007922
C        0.2242235346    0.9630469892    0.1670527544
N        2.7013667213   -0.8458282458   -1.4162337010
N       -0.3081086303   -0.0767787090    2.3513488919
N        0.0278363506    2.1543149954    2.3827023487
N       -0.0544404650    1.7289565219    3.7310844138
N        0.5150531706   -0.4180169575   -0.2578301265
O       -0.8246847565   -0.2774210793    4.6553589323
H       -1.8834316598    0.9066702867   -0.3536731566
H       -1.2093899901    2.5504465681   -0.2623367831
H       -0.8185207705    1.4991763113   -1.6463551303
H        1.0940981019    1.5859478506   -0.0661184436
H        0.8065037270    2.7862775631    2.2030146679
H       -0.6342243549    2.3257980249    4.3154156539
H        0.2120146751   -1.1184413869    0.4185527387
18   
Generated by ForceBalance from scan.xyz: Frame 5 of 24
C        1.8041047307   -0.5872085924   -0.6609029509
C       -0.0049232511    1.0173418300    1.6306356893
C       -0.4870219188    0.4167523832    3.6627983289
C       -1.1215228322    1.4753443541   -0.5527496022
C        0.1716652569    1.0056471241    0.1320432613
N        2.9046272795   -0.7523364496   -1.0196840838
N       -0.4583766576    0.0074071233    2.3060757252
N        0.2359141976    2.1538889021    2.3822995973
N        0.1192388501    1.7092739951    3.7212575969
N        0.5272314278   -0.3560183527   -0.3107304748
O       -0.9354550230   -0.1755417854    4.6201836534
H       -1.9437906997    0.7980962740   -0.3069889183
H       -1.3882753116    2.4837120883   -0.2227846653
H       -0.9767629660    1.4778043022   -1.6355710851
H        0.9920770308    1.6728451223   -0.1465095370
H        1.1030947829    2.6545451933    2.1934757497
H       -0.3413512860    2.3737184155    4.3377618514
H        0.1034056097   -1.0833869984    0.2637894269
18   
Generated by ForceBalance from scan.xyz: Frame 6 of 24
C        1.9391837218   -0.1601981924   -0.4225300330
C       -0.1734260669    1.0802617849    1.6174789415
C       -0.7400844040    0.5869044374    3.6549975561
C       -1.4342106851    1.2181478589   -0.5553832791
C       -0.0669899293    1.0902291830    0.1113487840
N        3.1018021276   -0.0923888008   -0.5350592151
N       -1.1096372522    0.4832328686    2.2909077449
N        0.8105753525    1.6663932746    2.3925494807
N        0.5606261743    1.1764562891    3.6933582795
N        0.6026200259   -0.1635413210   -0.3181773287
O       -1.3728295663    0.2568283415    4.6358618714
H       -2.0888260660    0.3989392218   -0.2491295782
H       -1.9112378262    2.1560415306   -0.2584040772
H       -1.3133010750    1.2028524369   -1.6409184293
H        0.5847670280    1.9096039975   -0.2008289264
H        1.7772427061    1.5611920245    2.0823790127
H        0.7085867623    1.8595177543    4.4315840921
H        0.1817314841   -1.0220592154    0.0259901156
18   
Generated by ForceBalance from scan.xyz: Frame 7 of 24
C        1.9874331228   -0.0511456238   -0.2120368635
C       -0.1581825255    1.0851632816    1.6106324124
C       -0.7261386268    0.5891340559    3.6478391566
C       -1.4604599757    1.1961747841   -0.5446809865
C       -0.0811604215    1.1380875857    0.1024178215
N        3.1438052239    0.0475370865   -0.0654096269
N       -1.1339637729    0.5627488567    2.2908163507
N        0.8962782082    1.5476676045    2.3774994592
N        0.6253963067    1.0455046723    3.6686011251
N        0.6549744328   -0.0625821707   -0.3845536720
O       -1.3673781806    0.2926983611    4.6346865904
H       -2.0635737925    0.3343287157   -0.2492070074
H       -1.9889880777    2.0951711152   -0.2186799981
H       -1.3536381686    1.2142116181   -1.6316680925
H        0.5164401806    2.0022038764   -0.1986725671
H        1.8438178665    1.3621578866    2.0430952988
H        0.8662866202    1.6803118839    4.4249343904
H        0.2039721743   -0.9471454902   -0.1625935968
18   
Generated by ForceBalance from scan.xyz: Frame 8 of 24
C        1.9848114794   -0.0768897991   -0.1224627499
C       -0.1102349035    1.0638205625    1.5732871427
C       -0.6508788304    0.5474802958    3.6141165215
C       -1.4720855499    1.1707646729   -0.5466288765
C       -0.0758387848    1.1553830269    0.0639061821
N        3.1053282244   -0.0527593226    0.2113965117
N       -1.0710048864    0.5229877141    2.2606998716
N        0.9456853374    1.5371854389    2.3328409528
N        0.6908714721    1.0250283111    3.6228690508
N        0.6988929488    0.0140840141   -0.5095403898
O       -1.2791710371    0.2356875511    4.6050534881
H       -2.0320769817    0.2778298844   -0.2577366262
H       -2.0283054578    2.0376420134   -0.1835739778
H       -1.3953406289    1.2229182731   -1.6352652790
H        0.4699824035    2.0595547355   -0.2209408804
H        1.8913468195    1.3515133483    1.9921503812
H        0.9386531413    1.6524709453    4.3827869611
H        0.1985897880   -0.8713307353   -0.4558005975
18   
Generated by ForceBalance from scan.xyz: Frame 9 of 24
C        1.9346212582   -0.1595828390   -0.0250391316
C       -0.0915774137    1.0679587795    1.5613085969
C       -0.6113514199    0.5487315666    3.6073339963
C       -1.4882197703    1.1420407655   -0.5375772404
C       -0.0836130299    1.1763305249    0.0519844223
N        2.9946643859   -0.2714595035    0.4551563351
N       -1.0285684047    0.4936889140    2.2530995987
N        0.9433550006    1.5945092042    2.3174415793
N        0.7060820776    1.0841950782    3.6116373854
N        0.7332442462    0.0927665802   -0.5806351028
O       -1.2284765525    0.2204638908    4.5999813159
H       -2.0085541274    0.2256374532   -0.2475080476
H       -2.0716353384    1.9839267272   -0.1596921669
H       -1.4313734761    1.2088683645   -1.6271010780
H        0.4095631380    2.1161268949   -0.2163842060
H        1.8934768151    1.4225344475    1.9827068420
H        0.9316961518    1.7245851336    4.3674076911
H        0.1915142629   -0.7575422125   -0.7262511457
18   
Generated by ForceBalance from scan.xyz: Frame 10 of 24
C        1.9249246665   -0.2117868432   -0.0201477634
C       -0.0164430746    1.0801568967    1.5399765777
C       -0.4952908386    0.5466216796    3.5926333905
C       -1.4673677464    1.1078580956   -0.5208287354
C       -0.0521651733    1.2209689597    0.0337967093
N        2.9131570465   -0.4866439277    0.5409984173
N       -0.9336547946    0.4913560636    2.2444177833
N        1.0236710991    1.6193894345    2.2820188360
N        0.8137468478    1.0990800334    3.5770190018
N        0.8229795418    0.2204355110   -0.6618300690
O       -1.0931257550    0.2070986102    4.5931604467
H       -1.9178619898    0.1519750094   -0.2423011100
H       -2.0941540476    1.9006114811   -0.1083530390
H       -1.4455891495    1.2084585433   -1.6097543967
H        0.3609491552    2.2047726468   -0.2130021141
H        1.9693799267    1.4528923530    1.9336338933
H        1.0459565365    1.7370080929    4.3327614833
H        0.2847187265   -0.5492452863   -1.0537826674
18   
Generated by ForceBalance from scan.xyz: Frame 11 of 24
C        1.9095566150   -0.2439140679   -0.0237653655
C        0.0401885642    1.1105350539    1.5433842976
C       -0.4160631408    0.6088009297    3.6092301222
C       -1.4513856379    1.0416847340   -0.4825230464
C       -0.0370945139    1.2690849658    0.0406956269
N        2.8164985229   -0.6845169771    0.5695703240
N       -0.8829480702    0.5606532682    2.2693978217
N        1.1134084162    1.6189794123    2.2621914205
N        0.9104611837    1.1124553737    3.5641093849
N        0.9118275663    0.3629138571   -0.6844491896
O       -1.0076890065    0.2984713699    4.6227414886
H       -1.8050176404    0.0410144137   -0.2242425479
H       -2.1365987633    1.7636764599   -0.0348205239
H       -1.4691141999    1.1755662822   -1.5688727905
H        0.2763241271    2.2935598900   -0.1901387202
H        2.0458355890    1.4143465341    1.8994208646
H        1.1825245046    1.7441076373    4.3117223636
H        0.4523260689   -0.2398983765   -1.3605522365
18   
Generated by ForceBalance from scan.xyz: Frame 12 of 24
C        1.9311966099   -0.2802341154   -0.1467807297
C        0.1052661908    1.0833652122    1.5637153891
C       -0.3564332116    0.8499499631    3.6758822038
C       -1.4531009758    0.8415209884   -0.3998123797
C       -0.0499722426    1.2269927402    0.0654566072
N        2.7620165387   -0.9166333666    0.3801772883
N       -0.8843979041    0.8196411070    2.3591398961
N        1.3035444164    1.3663088250    2.2082313953
N        1.0472721076    1.0127173310    3.5519507654
N        0.9716220855    0.4607440314   -0.6942130132
O       -0.9572625131    0.7645097591    4.7275149626
H       -1.6584103168   -0.2050248925   -0.1669526764
H       -2.2012545193    1.4589497945    0.1006227790
H       -1.5345743790    0.9903315352   -1.4810681707
H        0.1267869885    2.2888765254   -0.1506028323
H        2.1471363548    0.9233424102    1.8400090515
H        1.4999186196    1.6079744040    4.2394724996
H        1.1030953385    0.7302913486   -1.6616518646
18   
Generated by ForceBalance from scan.xyz: Frame 13 of 24
C        1.8974011388   -0.2883974803   -0.1657850051
C        0.1089449128    1.1191864205    1.5782128122
C       -0.3630324350    0.9400080461    3.6930638189
C       -1.4156488652    0.7790904957   -0.3962974644
C       -0.0451063225    1.2626065640    0.0797731470
N        2.6461934731   -1.0409631059    0.3304888856
N       -0.8949279231    0.9329857244    2.3778905104
N        1.3258444590    1.3221198361    2.2171337399
N        1.0489211924    1.0007626511    3.5651982195
N        1.0450203800    0.5974373933   -0.6713533606
O       -0.9654619995    0.9079792007    4.7467278608
H       -1.5391349587   -0.2850482767   -0.1834907859
H       -2.2094343734    1.3260091548    0.1154121860
H       -1.5068977922    0.9399112914   -1.4748307191
H        0.0539967025    2.3357018530   -0.1270761785
H        2.1357605099    0.8188302702    1.8517585484
H        1.5425441868    1.5719872670    4.2449140214
H        1.2016321283    0.9019521710   -1.6237496360
18   
Generated by ForceBalance from scan.xyz: Frame 14 of 24
C        1.8772398762   -0.3112518465   -0.1186899348
C        0.1273595051    1.1678732286    1.5974529841
C       -0.3912302982    0.9833199135    3.7003491257
C       -1.3088725461    0.7355073193   -0.4215507698
C        0.0126303913    1.3079779830    0.0961930172
N        2.5191082510   -1.1628432637    0.3653291585
N       -0.8956419628    0.9903023934    2.3745903457
N        1.3313072114    1.3543550976    2.2625687502
N        1.0247963623    1.0273605952    3.6025847862
N        1.1805378419    0.7200520753   -0.6005912142
O       -1.0151351196    0.9536133720    4.7413664405
H       -1.3634555503   -0.3376720136   -0.2231144325
H       -2.1516745292    1.2181090755    0.0760932554
H       -1.3870935535    0.9041870760   -1.5003003944
H        0.0531411926    2.3835101744   -0.1141905545
H        2.1464978181    0.8531580087    1.9088145078
H        1.5077771203    1.5930161419    4.2946235011
H        1.2203365349    0.8631953851   -1.6027673552
18   
Generated by ForceBalance from scan.xyz: Frame 15 of 24
C        1.7889238544   -0.3217559041   -0.1711558129
C        0.0891301553    1.2287625356    1.5840184712
C       -0.4507115658    1.0947964779    3.6841432812
C       -1.2743486312    0.6678899818   -0.4544914454
C       -0.0055261478    1.3373807769    0.0787767173
N        2.3173086500   -1.2762222882    0.2519890020
N       -0.9464273071    1.1094307832    2.3564630754
N        1.2948466410    1.3660654195    2.2535359634
N        0.9687569942    1.0693161873    3.5956651461
N        1.2268502487    0.8287500794   -0.5677201413
O       -1.0792062303    1.1075624709    4.7226606686
H       -1.2531981515   -0.4058124743   -0.2501641404
H       -2.1558444228    1.0899570220    0.0310412318
H       -1.3503842698    0.8237199186   -1.5351456415
H       -0.0292656471    2.4088604303   -0.1509453527
H        2.0938048437    0.8367589881    1.9062440040
H        1.4692878493    1.6276513269    4.2813618916
H        1.3162341496    1.0385157575   -1.5558440665
18   
Generated by ForceBalance from scan.xyz: Frame 16 of 24
C        1.7343919423   -0.3561785504   -0.2917330099
C        0.1078751339    1.2441816474    1.6051560867
C       -0.4255515543    1.1351131876    3.7071520506
C       -1.2077365607    0.5948373562   -0.4413539543
C        0.0186427205    1.3341124475    0.0981109081
N        2.1523750960   -1.4114491683   -0.0110302395
N       -0.9282220096    1.1740764902    2.3836623287
N        1.3208273689    1.3252818910    2.2661769965
N        0.9932221593    1.0421485206    3.6104836684
N        1.2934350348    0.8947359060   -0.5164447262
O       -1.0437791001    1.1781190849    4.7509057344
H       -1.1246555653   -0.4774017826   -0.2439791143
H       -2.1108281291    0.9625120971    0.0487932310
H       -1.2931206085    0.7514705943   -1.5209318255
H       -0.0581752164    2.4004799759   -0.1413882202
H        2.1000228746    0.7772338571    1.9058364689
H        1.5188616692    1.5843842437    4.2905156165
H        1.4549865710    1.2357245153   -1.4581677079
18   
Generated by ForceBalance from scan.xyz: Frame 17 of 24
C        1.6637519882   -0.4074414504   -0.4355257046
C        0.0962095169    1.2664464099    1.6178040308
C       -0.4492036336    1.1754030152    3.7168861557
C       -1.1604084039    0.5423173645   -0.4475238194
C        0.0344888781    1.3176106607    0.1080740463
N        1.9703229518   -1.5309344086   -0.3410144120
N       -0.9442840608    1.1882621168    2.3902627375
N        1.3013681442    1.3768789186    2.2845126461
N        0.9736743239    1.1042488492    3.6303249378
N        1.3451496404    0.9033961786   -0.4551671144
O       -1.0728139732    1.2197268489    4.7572005329
H       -1.0633241045   -0.5240667800   -0.2276107013
H       -2.0812522520    0.9019110063    0.0147557249
H       -1.2208761473    0.6771977025   -1.5313615814
H       -0.0601444163    2.3766248249   -0.1559214421
H        2.0966058093    0.8545137284    1.9231135635
H        1.4813962657    1.6702020631    4.3048048719
H        1.5929793270    1.3669194794   -1.3234033073
18   
Generated by ForceBalance from scan.xyz: Frame 18 of 24
C       -0.4281146284   -1.2759688653   -0.4515227994
C       -0.0046281926    0.9983291830    1.8117040458
C       -0.1424441877    1.6307897433    3.8810834128
C       -1.2721255269    1.4886331793   -0.2983158924
C        0.0512219417    1.0026863947    0.3027734890
N       -1.2163710677   -2.1190673092   -0.6287401074
N       -0.2216712610    2.0562269954    2.5353398612
N        0.1505115439   -0.1665127293    2.5268941010
N        0.2689029912    0.2578664175    3.8666696526
N        0.4973599154   -0.3273164695   -0.1907758493
O       -0.3696533918    2.2627213331    4.8919677117
H       -2.0851667595    0.7995541884   -0.0553466965
H       -1.5132879432    2.4708339416    0.1128195998
H       -1.1863634880    1.5613944558   -1.3860867678
H        0.8459831570    1.7009049603    0.0261803177
H        0.8455200002   -0.8371622157    2.2063342481
H       -0.2144539271   -0.3411150191    4.5312858809
H        1.2242806763   -0.2827999412   -0.8973370385
18   
Generated by ForceBalance from scan.xyz: Frame 19 of 24
C       -0.3391916406   -1.2227502964   -0.6754589486
C        0.0290268296    1.0456457032    1.8052350316
C        0.0433350454    1.7211784455    3.8653698828
C       -1.3595091175    1.3842128303   -0.2469001978
C        0.0248098022    1.0111809661    0.2957208031
N       -1.0822868289   -2.0389937325   -1.0582093865
N        0.0317439365    2.1354485230    2.5122969704
N       -0.0321207529   -0.1196807606    2.5382480698
N        0.1880445816    0.2964139615    3.8692626993
N        0.5162764109   -0.3076348634   -0.1825402994
O       -0.0489436072    2.3999671187    4.8670041995
H       -2.1129985804    0.6575761210    0.0671345428
H       -1.6374118167    2.3660490426    0.1417562523
H       -1.3402630453    1.4203096233   -1.3392307639
H        0.7483138683    1.7592415386   -0.0367747058
H        0.5359076234   -0.9029390173    2.2223113665
H       -0.3858737252   -0.1909719464    4.5525843820
H        1.4131039101   -0.2873484716   -0.6549491435
18   
Generated by ForceBalance from scan.xyz: Frame 20 of 24
C       -0.2072004767   -1.1676409623   -0.8773600828
C        0.0310035120    1.0185800407    1.8384141173
C        0.1553587047    1.6854476155    3.8981878951
C       -1.4079018462    1.2607553652   -0.1874468285
C        0.0064320088    0.9772326053    0.3300307189
N       -0.8650849968   -1.9218939957   -1.4805959226
N        0.2077302517    2.0948025540    2.5430001322
N       -0.2093813210   -0.1240428989    2.5746033235
N        0.0795171735    0.2566924013    3.9042425849
N        0.5389448666   -0.3289282792   -0.1378706643
O        0.1702356958    2.3732604975    4.8976222378
H       -2.1112709339    0.4942849366    0.1471321138
H       -1.7344082727    2.2282780224    0.1998046461
H       -1.4152315350    1.2922222088   -1.2796795709
H        0.6777031618    1.7655389142   -0.0194826937
H        0.2430350732   -0.9800576061    2.2599551714
H       -0.5569838279   -0.1365618932    4.5926634383
H        1.5267133489   -0.3356409159   -0.3682456805
18   
Generated by ForceBalance from scan.xyz: Frame 21 of 24
C       -0.1052661961   -1.1245020564   -1.0085041402
C        0.0592100114    1.0124721845    1.8537336645
C        0.2981596370    1.7137744021    3.8923180892
C       -1.4304298107    1.1671871030   -0.1424869081
C        0.0013226144    0.9315613651    0.3490820170
N       -0.6749991785   -1.7904197584   -1.7812063423
N        0.3665223732    2.0804623654    2.5247693442
N       -0.2876867268   -0.0791173644    2.6259119550
N        0.0704541760    0.3026769248    3.9385828913
N        0.5312409967   -0.3923113010   -0.0758423303
O        0.4064832114    2.4221600824    4.8712982803
H       -2.1051557962    0.3886283931    0.2221617499
H       -1.7744106354    2.1331724798    0.2337101648
H       -1.4647022343    1.1805061177   -1.2342894296
H        0.6490571439    1.7226241359   -0.0385316211
H        0.0669632429   -0.9853231501    2.3261884835
H       -0.5869322668   -0.0037892989    4.6509993816
H        1.5434836771   -0.4351993823   -0.1460096817
18   
Generated by ForceBalance from scan.xyz: Frame 22 of 24
C        0.2254684076   -0.6904953331   -1.2898626562
C       -0.0024097027    1.1143475942    1.8191636741
C        0.1672063904    0.4692109269    3.8907465552
C       -1.4481524776    1.3289471455   -0.2214412278
C       -0.0194339142    1.1275850786    0.3123189530
N       -0.0778508110   -1.1397591394   -2.3261819799
N        0.3409699135    0.0891481367    2.5360976215
N       -0.3422291060    2.2371106268    2.5527290884
N       -0.4357350418    1.7631644653    3.8840331618
N        0.6045897444   -0.1315367172   -0.1324341432
O        0.4622446240   -0.1483528087    4.8902196284
H       -2.1172519622    0.5496823495    0.1536007470
H       -1.8361506050    2.3093600252    0.0734281190
H       -1.4494186447    1.2904313627   -1.3128560477
H        0.6038039959    1.9660621986   -0.0223926275
H       -1.1583113336    2.7659839109    2.2515576404
H       -0.0677908281    2.4113943256    4.5757355741
H        0.7981410318   -0.7779654178    0.6329830168
18   
Generated by ForceBalance from scan.xyz: Frame 23 of 24
C        0.4187765276   -0.5877493690   -1.3695632953
C       -0.0194075718    1.0774892097    1.8323772449
C        0.0399043538    0.4313759780    3.9081320835
C       -1.5226844862    1.2066515309   -0.1627114233
C       -0.0684284123    1.0712931026    0.3284082781
N        0.3021407679   -0.9039782680   -2.4893743299
N        0.1585833136    0.0168301464    2.5583284690
N       -0.1835426082    2.2446099486    2.5542107469
N       -0.3588426973    1.8033623854    3.8881524343
N        0.5849231405   -0.1737317990   -0.1060435941
O        0.2320466863   -0.2139174368    4.9153297226
H       -2.1409104763    0.4014399112    0.2434999763
H       -1.9492601250    2.1695163085    0.1377544147
H       -1.5512033429    1.1546864183   -1.2537655403
H        0.5177038711    1.9190680371   -0.0441526715
H       -0.8971660296    2.8997201630    2.2403440147
H        0.1027447259    2.3922889509    4.5767850909
H        0.6107181538   -0.8965245983    0.6126244875
18   
Generated by ForceBalance from scan.xyz: Frame 24 of 24
C        0.1725714778   -0.6895841274   -1.3358768242
C        0.0282624916    1.0496330572    1.8710448328
C        0.5406495785    0.5610100975    3.9271030313
C       -1.4091380883    1.5134164803   -0.1707544004
C       -0.0627613394    1.0182610475    0.3669270190
N        0.0981308210   -0.9492908055   -2.4738723490
N        0.6935709151    0.1825938362    2.5701278990
N       -0.5431360595    2.0692521422    2.6114055412
N       -0.3853640537    1.6478941516    3.9527871820
N        0.1924261195   -0.3718755648   -0.0361501605
O        1.0749558647    0.0892322494    4.9071330461
H       -2.2335590448    0.9210250436    0.2368446230
H       -1.5559342435    2.5711302766    0.0690135022
H       -1.4296025959    1.4215252117   -1.2590472613
H        0.7314152570    1.6813452925   -0.0087954033
H       -1.4975703438    2.3347284901    2.3774043926
H       -0.1502848075    2.3999380669    4.5953819000
H        0.8279881386   -0.8848402696    0.5710931525
