22   

C        1.8222174317   -0.1979723267    0.1209373133
C        0.5366406101   -0.4647997976    0.5849394122
C        2.9219283053   -0.4317717792    0.9491899572
C        0.3557004569   -0.9697441463    1.8733865092
C        2.7602446371   -0.9282505904    2.2537354472
C        1.4502594619   -1.2089028226    2.7224487408
C        3.9531985060   -1.1290921218    3.0993932345
C        5.2694877430   -0.8026800157    2.8750549637
C        1.2012679455   -1.7796985430    4.0984266553
C        6.3746217888   -1.6108833429    2.2243155503
H        1.9691032939    0.1929301827   -0.8793332606
H       -0.3209856311   -0.2830174882   -0.0527537840
H        3.9160528377   -0.2152848180    0.5765137023
H       -0.6510471776   -1.1782257290    2.2163891465
H        3.7359082854   -1.3176470913    4.1428882452
H        5.6934237756   -0.2870632963    3.7301591949
H        1.7865489053   -2.6937319983    4.2390034240
H        1.4807287116   -1.0506191781    4.8648972541
H        0.1451578843   -2.0315787981    4.2331722636
H        7.1939519699   -1.7754707113    2.9305161363
H        5.9897749082   -2.5825877734    1.9003214488
H        6.7618112669   -1.0782474739    1.3509621033
22   

C        1.9163231455   -0.2637049588    0.1234358165
C        0.6167183435   -0.5046194327    0.5613302375
C        2.9905309627   -0.4615056977    0.9934561874
C        0.3962065209   -0.9471807388    1.8662686363
C        2.7888643338   -0.8920198415    2.3165916628
C        1.4643008779   -1.1463130762    2.7582024992
C        3.9509288606   -1.0579426601    3.2115149556
C        5.2683485942   -0.7942056483    2.9670551580
C        1.1743553687   -1.6650425279    4.1467019457
C        6.2419611261   -1.5944965357    2.1295795955
H        2.0938919334    0.0797998293   -0.8891772305
H       -0.2209941691   -0.3522124291   -0.1096634078
H        3.9942323412   -0.2626482076    0.6378667653
H       -0.6205929734   -1.1405857959    2.1877727021
H        3.7077865393   -1.1532897544    4.2622264696
H        5.7778389527   -0.3876770712    3.8341348216
H        1.7737080413   -2.5584980385    4.3479908171
H        1.4072118428   -0.8987648848    4.8919650908
H        0.1200260281   -1.9382541696    4.2504688351
H        7.1063766192   -1.8911454662    2.7311494255
H        5.7564327402   -2.4963033065    1.7440230796
H        6.5890953913   -0.9937832414    1.2839309229
22   

C        1.9900193374   -0.3274153221    0.1278736822
C        0.6818656715   -0.5523856986    0.5472778113
C        3.0449115764   -0.4761871614    1.0306034031
C        0.4333951307   -0.9283628691    1.8676429426
C        2.8154364435   -0.8377613234    2.3709119676
C        1.4812959302   -1.0737113160    2.7932372054
C        3.9496860461   -0.9540397934    3.3096488035
C        5.2718480682   -0.8033437466    3.0405424708
C        1.1630053423   -1.5379235745    4.1947392189
C        6.1010109956   -1.6096942927    2.0681300118
H        2.1892812659   -0.0326989941   -0.8960107894
H       -0.1405652979   -0.4397621040   -0.1499688168
H        4.0522739767   -0.2828356082    0.6844695170
H       -0.5893015946   -1.1145544418    2.1743157696
H        3.6948200208   -0.9603416657    4.3621546193
H        5.8565524090   -0.4771764607    3.8939154994
H        1.7823767083   -2.4021274512    4.4551026367
H        1.3481290097   -0.7322303749    4.9109955454
H        0.1152956413   -1.8421482955    4.2774672365
H        6.9794251054   -2.0228288536    2.5728890922
H        5.5112131029   -2.4363533393    1.6598002303
H        6.4356736493   -0.9737981147    1.2433892060
22   

C        2.0318217003   -0.3658857083    0.1361944777
C        0.7196790571   -0.5871692069    0.5430877739
C        3.0740836264   -0.4738661761    1.0590026876
C        0.4544140930   -0.9156713734    1.8723518250
C        2.8291929341   -0.7905430184    2.4091641409
C        1.4890491653   -1.0170906422    2.8185525978
C        3.9408906428   -0.8659347598    3.3788418925
C        5.2662531168   -0.8478981216    3.1106868506
C        1.1525427799   -1.4419451808    4.2283389329
C        5.9805488523   -1.6240643588    2.0322286914
H        2.2440973705   -0.1032414925   -0.8937928517
H       -0.0926417747   -0.5075451893   -0.1703734105
H        4.0801649864   -0.2718468753    0.7169492625
H       -0.5711348931   -1.1011340417    2.1697366900
H        3.6790802639   -0.8088719407    4.4282814919
H        5.8966694009   -0.6087552435    3.9602662649
H        1.7867961584   -2.2815125257    4.5304407123
H        1.3023540928   -0.6086951419    4.9207372514
H        0.1114787283   -1.7710633768    4.2991772311
H        6.8505335452   -2.1365152277    2.4536508887
H        5.3150643181   -2.3748504841    1.5945705256
H        6.3228352722   -0.9471088620    1.2440647118
22   

C        2.0561282028   -0.3851119935    0.1423856334
C        0.7444257072   -0.6105478030    0.5465583091
C        3.0939674404   -0.4593664824    1.0732907656
C        0.4749873493   -0.9060425049    1.8822791169
C        2.8468140678   -0.7478440385    2.4304152912
C        1.5048803633   -0.9716198609    2.8368743883
C        3.9458931223   -0.7887228665    3.4177773021
C        5.2640742623   -0.9128678013    3.1642209043
C        1.1632488214   -1.3695875791    4.2533615846
C        5.8994606687   -1.6321136966    2.0022226780
H        2.2715237213   -0.1428406809   -0.8919489563
H       -0.0642079150   -0.5581833912   -0.1735830395
H        4.0950917603   -0.2417645761    0.7286828480
H       -0.5502665556   -1.0952891093    2.1782243025
H        3.6828033665   -0.6843124468    4.4633681923
H        5.9176573799   -0.7610327473    4.0163413935
H        1.8124031268   -2.1874895630    4.5822370802
H        1.2869687006   -0.5168783968    4.9268161518
H        0.1293951811   -1.7213300679    4.3213702570
H        6.7593578935   -2.2119711896    2.3506673514
H        5.1889443344   -2.3226035484    1.5371136402
H        6.2490420483   -0.9127398217    1.2559339979
22   

C        2.0680432514   -0.4015809527    0.1447980177
C        0.7569505005   -0.6229142528    0.5517694929
C        3.1051965949   -0.4544189431    1.0778022305
C        0.4872959021   -0.8902185385    1.8930372866
C        2.8595696995   -0.7188581567    2.4407434345
C        1.5163886107   -0.9330115079    2.8498738575
C        3.9528406501   -0.7386497734    3.4356488000
C        5.2544893322   -0.9988925713    3.2117394484
C        1.1730485395   -1.3064771495    4.2727363681
C        5.8636128270   -1.6272916029    1.9867068803
H        2.2835514051   -0.1774407671   -0.8936015115
H       -0.0509880186   -0.5880745436   -0.1702115754
H        4.1024696458   -0.2314528964    0.7272459096
H       -0.5377019208   -1.0764573640    2.1917104965
H        3.6883635401   -0.6038243174    4.4774420618
H        5.9051380350   -0.9353532578    4.0771558719
H        1.8277885428   -2.1123941480    4.6197398168
H        1.2865160380   -0.4399886000    4.9301223000
H        0.1422999817   -1.6667054313    4.3436110674
H        6.7242899281   -2.2378166846    2.2757887034
H        5.1437266045   -2.2792046024    1.4823281055
H        6.2110963537   -0.8545391056    1.2947762896
22   

C        2.0661621934   -0.4182153559    0.1435239997
C        0.7553098658   -0.6245695222    0.5581036133
C        3.1058879099   -0.4595399275    1.0742093046
C        0.4884044990   -0.8639152136    1.9049349514
C        2.8641086041   -0.6975869135    2.4429809536
C        1.5200360280   -0.8939632371    2.8595580261
C        3.9580651193   -0.7077045078    3.4381311429
C        5.2327158947   -1.0947516037    3.2469790540
C        1.1777550246   -1.2426628982    4.2890765534
C        5.8574555298   -1.6106930191    1.9790487789
H        2.2796283403   -0.2139815545   -0.8993954279
H       -0.0544937362   -0.5995421788   -0.1621928877
H        4.1010055889   -0.2441630720    0.7142406830
H       -0.5366294570   -1.0394888439    2.2098357736
H        3.6926861207   -0.5544203237    4.4771114116
H        5.8628664375   -1.1183377260    4.1294221165
H        1.8306615773   -2.0446463802    4.6485353198
H        1.2941231450   -0.3657700311    4.9319218749
H        0.1464024575   -1.5996578943    4.3672283825
H        6.7326313413   -2.2202084945    2.2232330403
H        5.1554389034   -2.2419337773    1.4258191257
H        6.1887850205   -0.7788050429    1.3506722649
22   

C        2.0708563705   -0.4734881437    0.1192208902
C        0.7627275948   -0.4491381521    0.5901623371
C        3.0979670621   -0.9426107866    0.9401612350
C        0.4857572793   -0.9006117290    1.8795907029
C        2.8446591691   -1.4084809087    2.2465575105
C        1.5042078751   -1.3903341711    2.7158495714
C        3.9260596001   -1.9396228117    3.1032682177
C        5.2378426250   -1.6446831955    3.0370857067
C        1.1560230134   -1.7902812420    4.1303122837
C        5.8809450618   -0.4963587654    2.3060412440
H        2.2914755441   -0.1389294153   -0.8879304772
H       -0.0372431985   -0.0807502366   -0.0419548151
H        4.0917361011   -0.9868692187    0.5187069880
H       -0.5362680079   -0.8602319737    2.2378428404
H        3.6450840994   -2.5820737565    3.9289623353
H        5.8758990459   -2.1657933887    3.7425318604
H        1.2339079760   -2.8746969511    4.2478252891
H        1.8319846852   -1.2999233339    4.8382837980
H        0.1365357455   -1.4834215129    4.3827264056
H        6.2119717528   -0.8142839960    1.3130641056
H        5.1880350008    0.3455989049    2.2132611804
H        6.7570233469   -0.1503748766    2.8626886802
22   

C        2.0593819534   -0.4834074912    0.1119847034
C        0.7499940338   -0.4533538341    0.5803204168
C        3.0859228794   -0.9353006119    0.9433772381
C        0.4714297337   -0.8792517824    1.8784254517
C        2.8291081864   -1.3790193285    2.2561006250
C        1.4894235015   -1.3504912838    2.7256903567
C        3.9150337739   -1.8907034038    3.1183492119
C        5.2400121978   -1.6998802725    2.9590494615
C        1.1408182563   -1.7278177113    4.1461214282
C        5.9150569331   -0.5078940355    2.3307756808
H        2.2814162630   -0.1653422555   -0.9001783385
H       -0.0497359938   -0.0992390112   -0.0602019352
H        4.0843355836   -0.9785922824    0.5314937239
H       -0.5513236023   -0.8343166170    2.2340937374
H        3.6340510209   -2.5095188939    3.9618487167
H        5.8761192470   -2.2916806155    3.6082607035
H        1.2280007543   -2.8092904826    4.2831534367
H        1.8109276305   -1.2191955898    4.8466780641
H        0.1177882728   -1.4261097248    4.3902188938
H        6.2515709339   -0.7520147983    1.3189368866
H        5.2341321820    0.3480887018    2.2911317120
H        6.7883608476   -0.2210855533    2.9242014983
22   

C        2.0339028830   -0.4988331103    0.0941575302
C        0.7248024127   -0.4743908127    0.5652148025
C        3.0681896432   -0.9151325669    0.9346888054
C        0.4545817967   -0.8668283323    1.8760103497
C        2.8177360668   -1.3290617652    2.2572417952
C        1.4807661295   -1.3004692092    2.7333075748
C        3.9198344465   -1.7996901563    3.1208236859
C        5.2469771090   -1.7224261708    2.8729396210
C        1.1413922031   -1.6494917648    4.1630778341
C        5.9987333743   -0.5274471151    2.3412925180
H        2.2497572362   -0.2019237847   -0.9257295492
H       -0.0812286733   -0.1490330616   -0.0826193141
H        4.0712360560   -0.9461602250    0.5310369643
H       -0.5679638620   -0.8264645870    2.2328817813
H        3.6439618007   -2.3786204709    3.9936658426
H        5.8592127026   -2.3849545151    3.4751218598
H        1.2568382736   -2.7245134591    4.3279087968
H        1.7981816544   -1.1058806713    4.8497558204
H        0.1104323959   -1.3694488978    4.3994018174
H        6.3280986336   -0.7149609157    1.3151400140
H        5.3631888655    0.3636043276    2.3556168240
H        6.8798950284   -0.3338514452    2.9602847097
22   

C        1.9911886152   -0.5160538067    0.0701837750
C        0.6847034039   -0.4949063033    0.5502397908
C        3.0365098206   -0.8937301439    0.9154818826
C        0.4284211346   -0.8487860809    1.8752150306
C        2.7983672414   -1.2711830044    2.2498843775
C        1.4662807807   -1.2411733043    2.7382340435
C        3.9214517437   -1.6985684586    3.1090830210
C        5.2419759419   -1.7308743493    2.7963906330
C        1.1420875289   -1.5584685222    4.1787917642
C        6.1077973731   -0.5631689280    2.3833631955
H        2.1963845707   -0.2446169382   -0.9589503520
H       -0.1302443540   -0.2008993288   -0.1014098869
H        4.0423061627   -0.9153078960    0.5156062389
H       -0.5922696785   -0.8122108689    2.2378127786
H        3.6513049113   -2.2312469459    4.0124445858
H        5.8047221612   -2.4722074533    3.3533885031
H        1.2890793298   -2.6247481056    4.3733618609
H        1.7859272384   -0.9772920634    4.8466070115
H        0.1040189186   -1.3027956548    4.4114698038
H        6.4380305363   -0.6888339434    1.3481351020
H        5.5470649011    0.3733365229    2.4639095087
H        6.9890228473   -0.4996106803    3.0286975866
22   

C        1.9160416146   -0.5668944272    0.0329347335
C        0.6180626566   -0.5413333925    0.5362821409
C        2.9823439956   -0.8845508105    0.8767794400
C        0.3914368356   -0.8287633268    1.8828981391
C        2.7739010709   -1.1922928157    2.2327078900
C        1.4513349671   -1.1563430366    2.7462255297
C        3.9266234170   -1.5531267161    3.0810851179
C        5.2385905003   -1.6996196582    2.7315325726
C        1.1563776554   -1.4194869682    4.2039094597
C        6.2506737079   -0.6176219663    2.4240520013
H        2.0983497528   -0.3441410156   -1.0120804716
H       -0.2135469081   -0.2959221551   -0.1144259285
H        3.9846590692   -0.9062458635    0.4665379462
H       -0.6236177217   -0.7937211953    2.2611678555
H        3.6702664744   -2.0051888530    4.0308854806
H        5.7209728384   -2.5130644205    3.2628420198
H        1.3533489237   -2.4681744232    4.4453275655
H        1.7804094685   -0.7800206970    4.8361016049
H        0.1097022762   -1.2024141956    4.4370881172
H        6.5911876291   -0.7078537439    1.3884885821
H        5.8008569413    0.3705772003    2.5610748945
H        7.1148162189   -0.7052391963    3.0893980501
22   

C        1.8195385135   -0.6179562428   -0.0023382187
C        0.5360984110   -0.5844973627    0.5369809927
C        2.9132621787   -0.8847628812    0.8238649380
C        0.3515001308   -0.8123571836    1.9014618577
C        2.7473863716   -1.1288996072    2.1976765631
C        1.4399229804   -1.0851839445    2.7482576830
C        3.9329503842   -1.4362005917    3.0214303385
C        5.2415866369   -1.6451174488    2.6562640925
C        1.1880830457   -1.2994681188    4.2219529713
C        6.3814341860   -0.6558966561    2.5141390567
H        1.9692954593   -0.4403431214   -1.0610864880
H       -0.3169658811   -0.3801980423   -0.1000145228
H        3.9056220177   -0.9121559575    0.3896886001
H       -0.6532715280   -0.7759974958    2.3061443591
H        3.7057967764   -1.8069744419    4.0126823824
H        5.6359843983   -2.5431096920    3.1197782689
H        1.4322164808   -2.3291380583    4.4999973846
H        1.8000479828   -0.6110577340    4.8130238085
H        0.1386147232   -1.1163308192    4.4710428141
H        6.7650939570   -0.6732046895    1.4899968783
H        6.0323118543    0.3560410540    2.7408179052
H        7.1945709551   -0.9089003406    3.2010936404
