26   
Generated by ForceBalance from scan.xyz: Frame 1 of 11
C        1.3769608247   -0.1016099058   -1.6933670297
C        0.2843264264   -0.5245504478   -0.9160868379
C        1.6197166194   -0.6506059920   -2.9526113142
C       -0.5887198585   -1.5090057317   -1.3884057166
C       -3.5720866276   -6.6078322465   -6.7842962286
C       -4.2455497005   -7.6223488957   -7.5342459894
C        0.7539466029   -1.6392874581   -3.4421290910
C       -0.3444539990   -2.0565839941   -2.6487198382
C       -2.3187146257   -6.4711497803   -7.3339765302
C       -3.3533805782   -8.0293186007   -8.4891706990
C       -0.0886716763   -3.1389546075   -4.8203470814
C       -1.1740402257   -5.6417625560   -7.0494204145
N        0.8720667994   -2.2771356542   -4.6727046347
N       -1.1742985646   -4.8585582964   -6.0220872888
N       -0.2343649684   -3.8886372187   -5.9633064400
O       -2.1793223446   -7.3518239135   -8.3926212177
S       -1.2565223620   -3.3041344352   -3.4990676154
Br      -3.4861199719   -9.3001703668   -9.8579559878
H        2.0427087509    0.6650946943   -1.3063378306
H        0.1140262503   -0.0840418009    0.0623478934
H        2.4610959312   -0.3298537674   -3.5598450544
H       -1.4322957364   -1.8354711788   -0.7865730109
H       -3.9560612636   -6.0384917917   -5.9490040768
H       -5.2504060913   -7.9966001530   -7.3981342354
H       -0.3848330193   -5.6231165175   -7.8106924834
H        0.5265754600   -3.8337490011   -6.6417938368
26   
Generated by ForceBalance from scan.xyz: Frame 2 of 11
C        1.3065124167   -0.0057498203   -1.7684340204
C        0.3131405321   -0.5205713490   -0.9166959207
C        1.5109372754   -0.5399656808   -3.0406241969
C       -0.4969055534   -1.5838172305   -1.3258631072
C       -3.5504957721   -6.5293210967   -6.8703709423
C       -4.2525456533   -7.4962928541   -7.6555285000
C        0.7069149863   -1.6068450080   -3.4673271821
C       -0.2917666285   -2.1165781770   -2.5995860977
C       -2.2412837431   -6.5453050044   -7.2939602130
C       -3.3195063285   -8.0304588025   -8.5031845866
C       -0.0894517732   -3.1861500256   -4.7821347393
C       -1.0576150943   -5.8144243855   -6.9195384337
N        0.7980626818   -2.2412153205   -4.7019766531
N       -1.0785099762   -5.0167054993   -5.8996824626
N       -0.2592250212   -3.9399553065   -5.9221939062
O       -2.0940494346   -7.4789571161   -8.3063001456
S       -1.1424027807   -3.4481419281   -3.3831385187
Br      -3.4604502306   -9.3162991261   -9.8570297746
H        1.9244695161    0.8213034795   -1.4294399904
H        0.1713083747   -0.0898984091    0.0706260685
H        2.2754338368   -0.1487195442   -3.7054467089
H       -1.2635368783   -1.9809341308   -0.6663679206
H       -3.9511915123   -5.8853909477   -6.0996208900
H       -5.3014764662   -7.7541702520   -7.6159900297
H       -0.2663824312   -5.7694306348   -7.6803481237
H        0.4684337300   -3.8407340264   -6.6331907840
26   
Generated by ForceBalance from scan.xyz: Frame 3 of 11
C        1.2106850503    0.0851862097   -1.8676730069
C        0.3306139196   -0.4999794474   -0.9398341956
C        1.3723834859   -0.4548544184   -3.1433010293
C       -0.4066384138   -1.6396865793   -1.2733919427
C       -3.5020494326   -6.4821395325   -6.9008954275
C       -4.2421074676   -7.3710779710   -7.7404829566
C        0.6404583457   -1.5982761559   -3.4954382285
C       -0.2442509632   -2.1779109343   -2.5511193320
C       -2.1721071644   -6.6393315286   -7.2229993289
C       -3.3084322785   -8.0070399262   -8.5147742879
C       -0.0989274494   -3.2700119645   -4.7260711614
C       -0.9589630498   -6.0210576744   -6.7586518138
N        0.7032342587   -2.2485433795   -4.7233825030
N       -0.9847051401   -5.2078941226   -5.7438062810
N       -0.2914393484   -4.0506954894   -5.8472903889
O       -2.0494914400   -7.5926821007   -8.2215742300
S       -1.0220256021   -3.5968787288   -3.2521630148
Br      -3.4853108444   -9.2655160415   -9.8899564904
H        1.7731447012    0.9710856059   -1.5855073213
H        0.2205378591   -0.0636590035    0.0490395840
H        2.0492185805   -0.0106238686   -3.8672095666
H       -1.0851705789   -2.0902577068   -0.5544137263
H       -3.8882591111   -5.7905970480   -6.1648446646
H       -5.3129206067   -7.5108288382   -7.7868046029
H       -0.1653041419   -5.9492070109   -7.5191407272
H        0.3869439116   -3.9098582694   -6.6008313829
26   
Generated by ForceBalance from scan.xyz: Frame 4 of 11
C        1.1179656832    0.1448887790   -1.9669888192
C        0.3628115619   -0.4916560382   -0.9654862041
C        1.2268456978   -0.4045612247   -3.2439602474
C       -0.2998721544   -1.6941035700   -1.2267629239
C       -3.4549731746   -6.4012664858   -6.9264114375
C       -4.2286035427   -7.1788100172   -7.8415449895
C        0.5682898162   -1.6111006441   -3.5236535387
C       -0.1909177534   -2.2425277588   -2.5060108081
C       -2.1293537322   -6.6939236293   -7.1703998654
C       -3.3186311227   -7.8937600483   -8.5752083862
C       -0.1192277110   -3.3628409929   -4.6690342471
C       -0.9007737732   -6.2089705968   -6.6102275133
N        0.5934913416   -2.2793412745   -4.7429558289
N       -0.9130607181   -5.3853921271   -5.5919903846
N       -0.3401830273   -4.1745361580   -5.7653818063
O       -2.0446528784   -7.6323731168   -8.1879411051
S       -0.8972318539   -3.7346748903   -3.1251418707
Br      -3.5394988020   -9.0778642468  -10.0085612172
H        1.6246371664    1.0791575883   -1.7408531935
H        0.2926619854   -0.0467550687    0.0232224299
H        1.8073907506    0.0794955989   -4.0237640949
H       -0.8817139025   -2.1848880431   -0.4516088489
H       -3.8110911554   -5.6884430001   -6.1955456197
H       -5.3023790305   -7.1950101202   -7.9644104114
H       -0.0901775288   -6.1030310071   -7.3547836904
H        0.2745831507   -3.9981112080   -6.5669306639
26   
Generated by ForceBalance from scan.xyz: Frame 5 of 11
C        0.9907787109    0.2025201602   -2.0844623720
C        0.3642461237   -0.4674350248   -1.0177296373
C        1.0563479270   -0.3739461709   -3.3520572864
C       -0.2102583790   -1.7282301365   -1.2000062319
C       -3.3640580418   -6.3439494252   -6.8952237983
C       -4.1604947056   -6.9885671921   -7.8892455864
C        0.4857617578   -1.6396113250   -3.5548436068
C       -0.1442985403   -2.3026778955   -2.4708311899
C       -2.0608877483   -6.7605622274   -7.0898230732
C       -3.2887755649   -7.7593352682   -8.6138974163
C       -0.1259750617   -3.4764945809   -4.6047438931
C       -0.8280245671   -6.4155948421   -6.4513295193
N        0.4853350031   -2.3397026745   -4.7556394449
N       -0.8088568131   -5.5803485911   -5.4283956061
N       -0.3623481986   -4.3311563466   -5.6663687096
O       -2.0179914859   -7.6549954441   -8.1491783925
S       -0.7608460603   -3.8664351266   -3.0024297091
Br      -3.5487085509   -8.8305613453  -10.1268541211
H        1.4298872878    1.1822045589   -1.9167756106
H        0.3258372240   -0.0011443453   -0.0372174100
H        1.5372682816    0.1333398297   -4.1831669026
H       -0.6920507166   -2.2425260125   -0.3731772026
H       -3.6840987668   -5.6328781186   -6.1462438179
H       -5.2210479652   -6.8830620091   -8.0695332481
H       -0.0102544342   -6.2997164723   -7.1929113619
H        0.1798567846   -4.1258181548   -6.5144095185
26   
Generated by ForceBalance from scan.xyz: Frame 6 of 11
C        1.6224790239   -0.7327800627   -1.4812995533
C        0.3221193587   -0.4062667939   -1.0549624993
C        1.8306201921   -1.5175304716   -2.6145732053
C       -0.7969769006   -0.8618277219   -1.7570357595
C       -3.0908207364   -6.7445327205   -6.6370332917
C       -3.5005529994   -7.9597964007   -7.2641893183
C        0.7188378998   -1.9834701798   -3.3324662807
C       -0.5868373166   -1.6487325532   -2.8910712941
C       -2.6367624912   -5.9078531460   -7.6386742390
C       -3.2761142802   -7.7764797246   -8.6039571121
C       -0.4324997435   -3.0227365590   -4.8962174581
C       -2.0555947929   -4.6007140303   -7.6198717018
N        0.7716063719   -2.7616627415   -4.4829842448
N       -1.9188577369   -3.9401302683   -6.4843128307
N       -0.6771031597   -3.8653717613   -5.9655995967
O       -2.7685835565   -6.5449355436   -8.8638739106
S       -1.7844637072   -2.3536430170   -3.9758913621
Br      -3.4791573414   -8.9321477715  -10.0626637710
H        2.4767595334   -0.3665974529   -0.9184655150
H        0.1830452401    0.2083426894   -0.1699374993
H        2.8299984791   -1.7754198501   -2.9524036281
H       -1.7998535291   -0.6070494596   -1.4260287091
H       -3.0885166045   -6.5094381758   -5.5816956958
H       -3.8814701459   -8.8577148935   -6.7983397713
H       -1.2085517949   -4.5271680636   -8.3334783906
H        0.1429386824   -4.0703093979   -6.5494075972
26   
Generated by ForceBalance from scan.xyz: Frame 7 of 11
C        1.5917969339   -0.5540230825   -1.5165796146
C        0.2797539878   -0.3685625146   -1.0447700264
C        1.8450306502   -1.3166993333   -2.6561433554
C       -0.8059298081   -0.9467774952   -1.7082875457
C       -3.1632882563   -6.8320441180   -6.6483759096
C       -3.6937648038   -7.9685695150   -7.3320804995
C        0.7670749710   -1.9043220649   -3.3346527925
C       -0.5508547728   -1.7110340642   -2.8484477642
C       -2.5849124640   -6.0219503114   -7.6031931328
C       -3.4046141935   -7.7674167800   -8.6562389636
C       -0.3165063254   -3.0717075776   -4.8565711363
C       -1.8684970148   -4.7810562078   -7.5303228352
N        0.8648731143   -2.6798754410   -4.4847975386
N       -1.7537318588   -4.1448483811   -6.3913283565
N       -0.5052820708   -3.9310434579   -5.9221951868
O       -2.7461165479   -6.5976391862   -8.8545315976
S       -1.7015208588   -2.5474879818   -3.8900907779
Br      -3.7055938836   -8.8335064164  -10.1656263061
H        2.4203759198   -0.0947979690   -0.9843376638
H        0.1049882617    0.2308726807   -0.1556481063
H        2.8544623953   -1.4657118034   -3.0280048812
H       -1.8187205201   -0.8014495258   -1.3430367371
H       -3.1701153857   -6.6345991463   -5.5853275487
H       -4.1960421071   -8.8282111115   -6.9112644338
H       -1.0314827359   -4.7142025574   -8.2497613086
H        0.3093343418   -4.0496679758   -6.5336465948
26   
Generated by ForceBalance from scan.xyz: Frame 8 of 11
C        1.5496687190   -0.4147067014   -1.5455400113
C        0.2453639653   -0.3736456460   -1.0211996626
C        1.8360323710   -1.1388997983   -2.7025008058
C       -0.7993276265   -1.0596727303   -1.6470752608
C       -3.2576804523   -6.8431055472   -6.6678444214
C       -3.8867498930   -7.8959527461   -7.4017305858
C        0.8000256798   -1.8336028877   -3.3437549121
C       -0.5103260642   -1.7849343573   -2.8042772330
C       -2.5427568007   -6.0926815485   -7.5750124679
C       -3.5094555134   -7.7109020946   -8.7052368379
C       -0.2124618561   -3.1024637734   -4.8339607154
C       -1.6931892897   -4.9377703359   -7.4566295298
N        0.9340106768   -2.5891351007   -4.5038647543
N       -1.5912341330   -4.3129201187   -6.3204183422
N       -0.3527246598   -3.9604153161   -5.9053640191
O       -2.7042101163   -6.6269291173   -8.8437033502
S       -1.6063826872   -2.7342740482   -3.8079109604
Br      -3.8688403208   -8.7002152234  -10.2538739317
H        2.3456367384    0.1266159903   -1.0413565331
H        0.0439509492    0.1976114561   -0.1192783797
H        2.8397551059   -1.1771956446   -3.1154957572
H       -1.8062026794   -1.0255695534   -1.2403944599
H       -3.2976758564   -6.6624179124   -5.6025219594
H       -4.5125047806   -8.6925378970   -7.0246371929
H       -0.8820419181   -4.8918367298   -8.2004912891
H        0.4462497464   -3.9976555760   -6.5442036177
26   
Generated by ForceBalance from scan.xyz: Frame 9 of 11
C        1.4865777447   -0.2710876826   -1.5974665628
C        0.2107759511   -0.3689789293   -1.0143407085
C        1.7973409597   -0.9624272171   -2.7684158126
C       -0.7805515111   -1.1647454274   -1.5958152765
C       -3.3307124612   -6.8539925967   -6.6607104858
C       -4.0221693565   -7.8367121959   -7.4356498049
C        0.8146319969   -1.7656563651   -3.3649626858
C       -0.4676541305   -1.8567187890   -2.7669501246
C       -2.4769994940   -6.1978025808   -7.5176290643
C       -3.5374267513   -7.7093905957   -8.7097107649
C       -0.1208822781   -3.1397886487   -4.8119242399
C       -1.5191631678   -5.1335809762   -7.3581514258
N        0.9777122513   -2.5063577259   -4.5310937261
N       -1.4282423094   -4.5007407473   -6.2320315801
N       -0.2213293439   -3.9960629120   -5.8859285862
O       -2.6052442593   -6.7250420997   -8.7919085744
S       -1.4992517878   -2.9213260418   -3.7224698938
Br      -3.9082067345   -8.6562269037  -10.2820245870
H        2.2418399981    0.3533761190   -1.1279670227
H       -0.0102017811    0.1786351954   -0.1023711004
H        2.7799535964   -0.8931750508   -3.2257944160
H       -1.7660156498   -1.2388115751   -1.1444454463
H       -3.4286808143   -6.6567211791   -5.6020577706
H       -4.7621606201   -8.5505220622   -7.1021698891
H       -0.7285167747   -5.0878272586   -8.1195254460
H        0.5528802507   -3.9656381926   -6.5526543998
26   
Generated by ForceBalance from scan.xyz: Frame 10 of 11
C        1.4182404460   -0.1621159563   -1.6544190839
C        0.1929151637   -0.3891147862   -1.0033091408
C        1.7318476593   -0.8158560679   -2.8461825639
C       -0.7441657874   -1.2791330527   -1.5364092156
C       -3.4385901986   -6.8051583439   -6.6567222798
C       -4.1662325877   -7.7398124523   -7.4580837822
C        0.8034366806   -1.7121594861   -3.3951565835
C       -0.4282642055   -1.9326120314   -2.7284971340
C       -2.4442442050   -6.2862668303   -7.4528373574
C       -3.5604015158   -7.7243198537   -8.6853571609
C       -0.0685575739   -3.1686726904   -4.8011028454
C       -1.3932169886   -5.3186335804   -7.2574815341
N        0.9758647356   -2.4303329725   -4.5739767168
N       -1.3057467452   -4.6647643496   -6.1467939185
N       -0.1523871060   -4.0098148252   -5.8851045994
O       -2.5166079215   -6.8545637533   -8.7128168804
S       -1.3993457103   -3.0931934708   -3.6348059557
Br      -3.9091894214   -8.6764964730  -10.2595130058
H        2.1318756416    0.5339727830   -1.2219452859
H       -0.0313342053    0.1311534502   -0.0762609410
H        2.6758898651   -0.6467016818   -3.3557960436
H       -1.6909430075   -1.4532079224   -1.0327090719
H       -3.6120306063   -6.5464233776   -5.6212160947
H       -5.0128667541   -8.3475556153   -7.1714028569
H       -0.6224342120   -5.2728971404   -8.0362843640
H        0.5916028888   -3.9300018153   -6.5797252271
26   
Generated by ForceBalance from scan.xyz: Frame 11 of 11
C        1.3655846516   -0.1488012650   -1.6652914646
C        0.1965341999   -0.4866880187   -0.9610770855
C        1.6612804194   -0.7399623070   -2.8937664084
C       -0.7010991512   -1.4265629027   -1.4766274549
C       -3.4895855415   -6.7322567984   -6.7776840403
C       -4.1668044269   -7.7064424448   -7.5763477455
C        0.7721977166   -1.6848948795   -3.4261553488
C       -0.4030509588   -2.0165679415   -2.7057812270
C       -2.3418705486   -6.3907749908   -7.4543044848
C       -3.3816485679   -7.8879047471   -8.6827228860
C       -0.0644131284   -3.1594320853   -4.8357590229
C       -1.2452662275   -5.4877857705   -7.2066017530
N        0.9350921240   -2.3532780754   -4.6348777821
N       -1.2109277308   -4.7718771035   -6.1325946973
N       -0.1582989868   -3.9449715500   -5.9566517270
O       -2.2710303592   -7.1055786780   -8.6369413601
S       -1.3317042635   -3.2212692647   -3.5997405974
Br      -3.5773431597   -8.9893118470  -10.1845455321
H        2.0491994349    0.5843591860   -1.2456904210
H       -0.0146705909   -0.0142903455   -0.0057693470
H        2.5618250219   -0.4852006344   -3.4448032764
H       -1.6040385019   -1.6865576330   -0.9311846917
H       -3.8006505673   -6.3280274894   -5.8241200564
H       -5.1023825736   -8.2060282109   -7.3677438014
H       -0.4610033335   -5.4494135322   -7.9712334026
H        0.5982011810   -3.8718287156   -6.6371446411
