16   
Generated by ForceBalance from scan.xyz: Frame 1 of 24
C        2.3600926951   -1.3466299601   -0.5398478119
C       -0.0832495171   -1.6544198248   -0.4954887772
C        4.3496132572   -0.4963527857    2.4904536869
C        3.5889004278   -1.0926988520    0.3295924916
N        1.1611591790   -1.1565002465    0.0739573648
O        2.5035728050   -1.7135992709   -1.7060287589
O        3.2245698845   -0.7370720586    1.6561525567
H       -0.9086800374   -0.9885045305   -0.2285714645
H       -0.3114124252   -2.6675060821   -0.1411720038
H        0.0198792272   -1.6800216462   -1.5806865823
H        3.9667148296   -0.2329314332    3.4785686161
H        4.9593563706    0.3335302511    2.1054698257
H        4.9815589971   -1.3922468749    2.5738669419
H        4.1846594622   -0.2987961417   -0.1428473941
H        4.1890384442   -2.0134710919    0.3174750209
H        1.2034542011   -0.9549721186    1.0663075621
16   
Generated by ForceBalance from scan.xyz: Frame 2 of 24
C        2.3624018119   -1.2231491160   -0.5974009648
C       -0.0469732960   -1.6886567723   -0.4690837022
C        4.3279924396   -0.5287987549    2.4894677984
C        3.5828948244   -1.0681421023    0.3077533938
N        1.1517949528   -0.9959878976   -0.0051316569
O        2.5143938555   -1.5931949402   -1.7600328646
O        3.2110877775   -0.6855405113    1.6243064414
H       -0.9354363325   -1.0967494638   -0.2326931130
H       -0.1413316195   -2.6789775441   -0.0057965996
H        0.0193482140   -1.8117415433   -1.5503937391
H        3.9384511209   -0.2390622186    3.4675125845
H        5.0068418623    0.2545297713    2.1234434548
H        4.8899700526   -1.4688100607    2.5871357906
H        4.2630622842   -0.3309866666   -0.1416814954
H        4.0964507364   -2.0402230583    0.3086107452
H        1.2181554049   -0.8103629726    0.9904795672
16   
Generated by ForceBalance from scan.xyz: Frame 3 of 24
C        2.3478209641   -1.1385349996   -0.6349103323
C       -0.0137783668   -1.7491116568   -0.3798740275
C        4.2841564859   -0.5787545083    2.4993506075
C        3.5543754598   -1.0702044691    0.3011759142
N        1.1232195747   -0.8789718554   -0.0672407963
O        2.5094563589   -1.5201262329   -1.7904916418
O        3.1821630950   -0.6426601877    1.6032252468
H       -0.9493348436   -1.2340395416   -0.1463307493
H        0.0323557127   -2.6868414847    0.1886522884
H        0.0021123529   -1.9804277454   -1.4454040381
H        3.8941997368   -0.2494510268    3.4645744139
H        5.0392636428    0.1393625836    2.1495609645
H        4.7580631602   -1.5639682299    2.6167220185
H        4.3108376061   -0.4025932789   -0.1345325576
H        3.9772336883   -2.0851063486    0.3240484999
H        1.2063511753   -0.6530571505    0.9199893860
16   
Generated by ForceBalance from scan.xyz: Frame 4 of 24
C        2.3602317575   -1.0494622495   -0.7007639334
C        0.0674202190   -1.8100679523   -0.3227753953
C        4.2331170679   -0.6137251651    2.4916710004
C        3.5375222677   -1.0717611491    0.2752938513
N        1.1109563528   -0.7859822165   -0.1644315926
O        2.5441388735   -1.4098755176   -1.8573198917
O        3.1646508024   -0.5805277381    1.5538199327
H       -0.9053225999   -1.3816827292   -0.0679147931
H        0.2552112454   -2.6814399475    0.3183976304
H        0.0417451225   -2.1339576250   -1.3640554571
H        3.8429579297   -0.2286033686    3.4358615080
H        5.0709054164    0.0164975587    2.1616289095
H        4.5978220092   -1.6402205189    2.6414920266
H        4.3731204002   -0.4961691983   -0.1458969088
H        3.8516152125   -2.1248715871    0.3339645943
H        1.2083495540   -0.5054856505    0.8088407738
16   
Generated by ForceBalance from scan.xyz: Frame 5 of 24
C        2.3765767703   -0.9408038119   -0.7341774181
C        0.1652863563   -1.8037862456   -0.2003499101
C        4.1776781200   -0.6630242628    2.5159897792
C        3.5213298113   -1.0541072276    0.2753583315
N        1.1035303485   -0.6644023244   -0.2285998866
O        2.5832949393   -1.2643917690   -1.8944032083
O        3.1425706222   -0.5512895447    1.5469632222
H       -0.8220036759   -1.4441990491    0.1000836799
H        0.4880186554   -2.5877138477    0.4984740446
H        0.0865489463   -2.2295629752   -1.2021480706
H        3.7847566461   -0.2612863667    3.4520277225
H        5.0647810075   -0.0866388905    2.2180030137
H        4.4693091310   -1.7126556637    2.6655511224
H        4.4085235851   -0.5360109241   -0.1135458740
H        3.7576825273   -2.1280677209    0.3309858199
H        1.2111303368   -0.3079454216    0.7199453350
16   
Generated by ForceBalance from scan.xyz: Frame 6 of 24
C        2.3863311905   -0.8853634616   -0.8020779129
C        0.2378460058   -1.3223734654    0.3037777928
C        4.1904981736   -1.2475714336    2.4217535369
C        3.5548872110   -0.9840454575    0.1688790342
N        1.1866504765   -0.3474918136   -0.2864919827
O        2.5922923136   -0.9999831310   -2.0028317079
O        3.1309096778   -1.3116136089    1.4783735697
H       -0.0790313520   -2.0817452227   -0.4228175984
H       -0.6410841663   -0.7790893580    0.6599174011
H        0.7084624057   -1.8143353044    1.1565173971
H        3.7713677536   -1.5177966582    3.3932149695
H        4.6108826902   -0.2325617554    2.4794217435
H        4.9975406717   -1.9510516167    2.1685978901
H        4.0279395872    0.0119110281    0.1461666568
H        4.2803561060   -1.7132866120   -0.2158898065
H        0.7242710923    0.0507751735   -1.1062144189
16   
Generated by ForceBalance from scan.xyz: Frame 7 of 24
C        2.3948903269   -0.7783813774   -0.8401704546
C        0.2883151562   -1.3223299935    0.3607336637
C        4.1437274625   -1.2624614107    2.4168549666
C        3.5277093258   -0.9578479151    0.1648919395
N        1.1502475334   -0.3630497920   -0.3621572927
O        2.6777423233   -0.7483476140   -2.0336577286
O        3.0788782805   -1.2407653601    1.4770361224
H       -0.0286604856   -2.1517954726   -0.2845460031
H       -0.5983117578   -0.7921483298    0.7179628633
H        0.8253895938   -1.7197445823    1.2209682400
H        3.7064993584   -1.4892662760    3.3914750991
H        4.6505687533   -0.2873927954    2.4663340109
H        4.8858815200   -2.0345391047    2.1654231668
H        4.0798144857   -0.0045533617    0.1389261449
H        4.2020740105   -1.7416185263   -0.2064485533
H        0.6480541418   -0.0202544825   -1.1816327620
16   
Generated by ForceBalance from scan.xyz: Frame 8 of 24
C        2.3925156504   -0.6435184969   -0.8319961411
C        0.3363556647   -1.3941634535    0.3830457928
C        4.1216140658   -1.2427147212    2.4271251597
C        3.4960389714   -0.9497073260    0.1782065302
N        1.1048950272   -0.3992459116   -0.3856175983
O        2.7270542747   -0.4396068394   -1.9969592614
O        3.0484468511   -1.0452059730    1.5175704562
H        0.0558107530   -2.2561887330   -0.2362543790
H       -0.5737780961   -0.9189788114    0.7581667260
H        0.9244196876   -1.7355625665    1.2327501013
H        3.6873872420   -1.2967561814    3.4276276568
H        4.8355045152   -0.4068283301    2.3882162566
H        4.6610530620   -2.1779100982    2.2154733519
H        4.2213204637   -0.1305463360    0.0654051077
H        4.0023900273   -1.8742777338   -0.1383574542
H        0.5739797178   -0.0656626635   -1.1888749144
16   
Generated by ForceBalance from scan.xyz: Frame 9 of 24
C        2.6129713760   -2.1315322481   -0.0644799211
C        0.4137534314   -0.9445010393    0.1548689779
C        3.7039599703   -0.2319353633    1.9924039364
C        3.4312892229   -0.8480731786   -0.2845499613
N        1.2549994541   -2.0541847743   -0.3105865069
O        3.1673235801   -3.2056161773    0.1605839360
O        3.2209024868    0.1510724134    0.7074522015
H       -0.5663142450   -1.0240565464   -0.3224994613
H        0.8592347440    0.0101060795   -0.1246520980
H        0.2821279076   -0.9523662341    1.2441298675
H        3.5453500444    0.6226473486    2.6533778182
H        4.7755839143   -0.4729231248    1.9562620310
H        3.1649857979   -1.1031820389    2.3890592938
H        3.1480967964   -0.3933989767   -1.2380582334
H        4.4848064499   -1.1504196853   -0.3220961014
H        0.8364651573   -2.9683563408   -0.1522588017
16   
Generated by ForceBalance from scan.xyz: Frame 10 of 24
C        2.6235656688   -2.1557143669   -0.0990325545
C        0.4265883284   -0.9308802985    0.1211912910
C        3.6709531423   -0.2935286451    2.0005476265
C        3.4015914816   -0.8443957689   -0.2914523450
N        1.2546907481   -2.0922322249   -0.2080055613
O        3.2123066944   -3.2274067706    0.0403356860
O        3.1698004354    0.1169870327    0.7311758203
H       -0.5738358769   -1.0904300850   -0.2894863043
H        0.8410292613   -0.0278991005   -0.3268208265
H        0.3477595401   -0.7660098859    1.2024155272
H        3.4863189477    0.5317511551    2.6913059923
H        4.7499401768   -0.4967178437    1.9529385878
H        3.1630073479   -1.1956835385    2.3681989406
H        3.1032231795   -0.3688401632   -1.2307674232
H        4.4624242208   -1.1164436008   -0.3468237118
H        0.8314150994   -2.9951530809   -0.0130230460
16   
Generated by ForceBalance from scan.xyz: Frame 11 of 24
C        2.6742270375   -2.1957634560   -0.0976347969
C        0.4693419088   -0.9605135437    0.1410616757
C        3.6472329843   -0.3197674633    2.0170792906
C        3.4277909185   -0.8687931676   -0.2776021055
N        1.3071853129   -2.1405153451   -0.0548610761
O        3.2811871297   -3.2665299534   -0.0521713329
O        3.1666338561    0.0889304915    0.7395634080
H       -0.5367481788   -1.1850413551   -0.2231267412
H        0.8573386340   -0.1157697457   -0.4282016939
H        0.4097666595   -0.6589837001    1.1931481721
H        3.4385978823    0.5001552717    2.7073813894
H        4.7294536873   -0.5093797423    1.9908219300
H        3.1422202488   -1.2293709569    2.3707429643
H        3.1357681047   -0.3991716945   -1.2224960322
H        4.4935514173   -1.1226462908   -0.3225286507
H        0.8869228774   -3.0438900709    0.1367474332
16   
Generated by ForceBalance from scan.xyz: Frame 12 of 24
C        2.6766002534   -2.1956057454   -0.1469897175
C        0.4841884776   -0.9408393514    0.1681092616
C        3.6254132756   -0.3375283685    2.0049566181
C        3.4394587527   -0.8701087228   -0.2947423760
N        1.3285210098   -2.1264701991    0.0619519844
O        3.2663600982   -3.2738265158   -0.2330780258
O        3.1704519793    0.0833265494    0.7222908644
H       -0.5224278342   -1.1982569474   -0.1726373392
H        0.8626671606   -0.1379663660   -0.4648634839
H        0.4267649466   -0.5619071531    1.1944431000
H        3.4091708732    0.4781582358    2.6979554030
H        4.7070824491   -0.5323404466    1.9969143871
H        3.1077893367   -1.2464520231    2.3417186854
H        3.1688854884   -0.3926512020   -1.2425631808
H        4.5038245315   -1.1320066329   -0.3283554609
H        0.8961930107   -3.0343082365    0.1907596141
16   
Generated by ForceBalance from scan.xyz: Frame 13 of 24
C        2.6236803891   -2.1603532489    0.0113687858
C        0.4152127216   -0.9285870041    0.1816293476
C        3.8014374799   -0.2479363793    1.9989969050
C        3.3731770315   -0.8442366613   -0.2551481728
N        1.2978300615   -2.0818402311    0.3395929526
O        3.2119202682   -3.2402571038   -0.0590044367
O        3.2234284180    0.1427917934    0.7555261593
H       -0.0137459388   -0.8736165524   -0.8277529671
H        0.9640117741   -0.0116960711    0.3913661433
H       -0.4043848024   -1.0054012156    0.9015022541
H        3.6699127221    0.5929583387    2.6830347177
H        4.8733292405   -0.4616383353    1.8852145735
H        3.3054842599   -1.1351475683    2.4145108024
H        3.0040344066   -0.3908469148   -1.1812433724
H        4.4260734651   -1.1168143793   -0.3941215679
H        0.8642660319   -2.9950365826    0.4273949688
16   
Generated by ForceBalance from scan.xyz: Frame 14 of 24
C        2.6037018671   -2.1494582883   -0.0280495243
C        0.4119068153   -0.9305012754    0.2047917477
C        3.7728445967   -0.2526742068    2.0039904203
C        3.3822303081   -0.8436671081   -0.2570054200
N        1.3209928532   -2.0512624367    0.4541501103
O        3.1450559813   -3.2378974083   -0.2179734409
O        3.2201429379    0.1417333918    0.7501362110
H        0.0027744803   -0.9488543350   -0.8141202774
H        0.9350500121    0.0107338845    0.3685041570
H       -0.4188408491   -0.9852135840    0.9132542169
H        3.6331092767    0.5884020136    2.6861602540
H        4.8460427047   -0.4701028601    1.9096034525
H        3.2633829272   -1.1367833073    2.4088529107
H        3.0493682276   -0.3826277853   -1.1934585450
H        4.4337640368   -1.1336236391   -0.3718910750
H        0.8855183835   -2.9673678752    0.5123722012
16   
Generated by ForceBalance from scan.xyz: Frame 15 of 24
C        2.6044144833   -2.1336918247   -0.1074750020
C        0.4292586614   -0.9468780918    0.2310702701
C        3.7461151414   -0.2352159697    2.0049482730
C        3.4441299886   -0.8555039032   -0.2632346483
N        1.3821129448   -2.0254633487    0.5262120795
O        3.0697237247   -3.2196730128   -0.4454440586
O        3.2446988515    0.1397356851    0.7239116383
H       -0.0145385824   -1.0511815297   -0.7676750524
H        0.9324479324    0.0166674827    0.3060309862
H       -0.3721009677   -0.9709864804    0.9740705028
H        3.5789735382    0.6163687693    2.6677861438
H        4.8231002412   -0.4502526317    1.9567139588
H        3.2203910055   -1.1128317614    2.4017539378
H        3.2046273624   -0.3886183970   -1.2251291217
H        4.4899381703   -1.1854859220   -0.3033091854
H        0.9501063837   -2.9458720387    0.5686880536
16   
Generated by ForceBalance from scan.xyz: Frame 16 of 24
C        2.5407404141   -2.1198110992   -0.1614620946
C        0.4068280496   -0.9429953402    0.3182688975
C        3.7069319712   -0.2055076395    2.0116854423
C        3.4917561885   -0.9157663260   -0.2429458380
N        1.4003583169   -1.9897462243    0.6237367494
O        2.8814631861   -3.1928706211   -0.6485721955
O        3.2768217952    0.1227411552    0.6918433904
H       -0.1033798018   -1.1285496413   -0.6355558436
H        0.9008992887    0.0280964729    0.2828524356
H       -0.3378102770   -0.9195027072    1.1180709312
H        3.5226065990    0.6765547895    2.6286363381
H        4.7818705477   -0.4362903813    2.0253929893
H        3.1468528442   -1.0567613466    2.4168635551
H        3.3996743527   -0.4665898709   -1.2378450915
H        4.5053052323   -1.3315651799   -0.1667602306
H        0.9581619182   -2.9072107216    0.6660954632
16   
Generated by ForceBalance from scan.xyz: Frame 17 of 24
C        2.5014457621   -2.0697211782   -0.2670211690
C        0.3936646236   -0.9785460808    0.3979852691
C        3.6623190321   -0.1530789361    2.0152474438
C        3.5648159526   -0.9647386040   -0.2206427844
N        1.4470596742   -1.9861419786    0.6532765473
O        2.7088961268   -3.0721025182   -0.9390576971
O        3.3166657699    0.1147932395    0.6572550958
H       -0.1565746741   -1.1868374983   -0.5282885965
H        0.8481580322    0.0112585741    0.3329639364
H       -0.3072689799   -0.9809719181    1.2366599732
H        3.4538384127    0.7609088472    2.5757468962
H        4.7322172295   -0.3912941382    2.1045746858
H        3.0687781278   -0.9777650420    2.4260659590
H        3.6724529304   -0.5454719209   -1.2258624605
H        4.5078808373   -1.4767972043    0.0177267151
H        1.0164517331   -2.9115355265    0.6635207525
16   
Generated by ForceBalance from scan.xyz: Frame 18 of 24
C        2.4572904395   -1.9961322530   -0.3446325645
C        0.3440985878   -1.0260336628    0.4087406964
C        3.6876995358   -0.1225974942    2.0022679703
C        3.6164047569   -1.0055557670   -0.2125953833
N        1.4720095124   -1.9530247801    0.6729781509
O        2.5300623102   -2.9119785588   -1.1504745398
O        3.3808478702    0.1065576949    0.6280992158
H       -0.1909931981   -1.2782432469   -0.5156146909
H        0.7264006593   -0.0054115386    0.3348959564
H       -0.3516821546   -1.0717596833    1.2502946366
H        3.4875972171    0.8147899086    2.5262080072
H        4.7498043424   -0.3803712687    2.1259955908
H        3.0648837449   -0.9189280369    2.4246366784
H        3.8639739668   -0.6228069907   -1.2070228332
H        4.4739115580   -1.6037460628    0.1295631622
H        1.0789411179   -2.8964686455    0.6769356382
16   
Generated by ForceBalance from scan.xyz: Frame 19 of 24
C        2.5024272267   -1.8063531244   -0.2006499905
C        0.1024489000   -1.3988906921   -0.3093943082
C        4.0105486032   -0.6305059816    2.2808362524
C        3.4688454068   -0.6235631317   -0.0244269426
N        1.2939590947   -1.7241804402    0.5009797877
O        2.7168251192   -2.6372141068   -1.0703284817
O        3.3567600824    0.0586105385    1.2153386116
H       -0.7848303781   -1.4531248363    0.3260428410
H        0.0000178068   -2.1341401382   -1.1092295901
H        0.1650589954   -0.3952856938   -0.7518112097
H        3.8619112719   -0.0336135982    3.1827538893
H        5.0864463289   -0.7279316266    2.0823612059
H        3.5872411457   -1.6333309042    2.4355985482
H        3.1889951934    0.0939763582   -0.8035077703
H        4.4948919232   -0.9597053740   -0.2173767357
H        1.3946662616   -1.0062039294    1.2181103984
16   
Generated by ForceBalance from scan.xyz: Frame 20 of 24
C        2.4533026516   -1.7089759414   -0.2392818112
C        0.0201984427   -1.4446769648   -0.2641083830
C        3.9969700642   -0.6609527624    2.2902501049
C        3.5077786996   -0.6115080934   -0.0281153645
N        1.2802054934   -1.5628524443    0.4873201524
O        2.6015083491   -2.5302492261   -1.1353116925
O        3.4159175201    0.0735509304    1.2124041347
H       -0.8229265553   -1.5283736999    0.4261034594
H       -0.0404227356   -2.2580629615   -0.9882501392
H       -0.0448292190   -0.4873618780   -0.7976193532
H        3.8618356683   -0.0602831400    3.1918959618
H        5.0698053315   -0.8226386354    2.1192425726
H        3.5075500793   -1.6354223334    2.4263293251
H        3.3174604985    0.1293161900   -0.8117403462
H        4.5067566325   -1.0342506491   -0.1904861513
H        1.3815510912   -0.7922625791    1.1453723739
16   
Generated by ForceBalance from scan.xyz: Frame 21 of 24
C        2.4392150232   -1.5663773135   -0.3327469421
C       -0.0113176990   -1.4533578700   -0.2471364278
C        3.9829491968   -0.6780039936    2.2703061434
C        3.5672621368   -0.5604348451   -0.0620593438
N        1.2958643859   -1.3815093074    0.4133154474
O        2.5390587319   -2.3667036399   -1.2569884770
O        3.4830424002    0.1084247054    1.1883818590
H       -0.7966062862   -1.5710641495    0.5038887477
H       -0.0248688001   -2.3199443960   -0.9089091869
H       -0.2114881122   -0.5521530134   -0.8405754232
H        3.8580467398   -0.0834113606    3.1775661132
H        5.0486013573   -0.9035742255    2.1289530447
H        3.4293965526   -1.6211530174    2.3747171206
H        3.4753056578    0.2067386746   -0.8375739312
H        4.5325838092   -1.0643172162   -0.1932330298
H        1.3899482147   -0.5899965191    1.0449184076
16   
Generated by ForceBalance from scan.xyz: Frame 22 of 24
C        2.4384027047   -1.4553124805   -0.4222608036
C       -0.0144110402   -1.4889382286   -0.2298608784
C        3.9537231003   -0.7192762171    2.2585419196
C        3.6261347344   -0.5436147795   -0.0860276805
N        1.3126311369   -1.2331806080    0.3251573321
O        2.5070115453   -2.2432528266   -1.3623752354
O        3.5376788459    0.1095601076    1.1730443145
H       -0.7314744560   -1.6457127729    0.5802597629
H        0.0322749021   -2.3895335845   -0.8427938919
H       -0.3551900689   -0.6553034910   -0.8566870954
H        3.8310268670   -0.1310514672    3.1703672157
H        5.0095123170   -1.0025698170    2.1504857965
H        3.3447468332   -1.6306583169    2.3288170379
H        3.6390631529    0.2406052035   -0.8495066662
H        4.5509822775   -1.1252800418   -0.1819036783
H        1.3953790418   -0.4413238970    0.9553972012
16   
Generated by ForceBalance from scan.xyz: Frame 23 of 24
C        2.5663768013   -1.5462463779   -0.3970733543
C        0.1106695007   -1.7270212476   -0.4622584196
C        4.4383444923   -0.5043871160    2.6479585483
C        3.7492659036   -1.1177913776    0.4675112633
N        1.3759125409   -1.6475847788    0.2535739136
O        2.7341906234   -1.7572455623   -1.5980670040
O        3.3473579089   -0.8429795907    1.8023415341
H       -0.3773001159   -0.7462389177   -0.5202350253
H       -0.5634278755   -2.4317300950    0.0338200937
H        0.3139541946   -2.0782242694   -1.4743022459
H        4.0280096608   -0.3154918084    3.6420949667
H        4.9525264154    0.3995178662    2.2910093469
H        5.1654974615   -1.3269087980    2.7062373246
H        4.1903918567   -0.2287339007   -0.0043195396
H        4.5009299016   -1.9196368759    0.4384280817
H        1.3820411937   -1.3500318803    1.2224414899
16   
Generated by ForceBalance from scan.xyz: Frame 24 of 24
C        2.4726746891   -1.3479317302   -0.4482870197
C        0.0158523861   -1.6072739906   -0.4747923155
C        4.4143249790   -0.4706129814    2.6049945195
C        3.6838537155   -1.0308730764    0.4243843380
N        1.2768320800   -1.3300164693    0.1937080614
O        2.6305248597   -1.5957216545   -1.6443488456
O        3.3052465959   -0.7730078495    1.7695804348
H       -0.6467371208   -0.7350175712   -0.4420219926
H       -0.4937529656   -2.4580399129   -0.0091892803
H        0.2332322968   -1.8485261818   -1.5157847378
H        4.0217050884   -0.2883473143    3.6075113236
H        4.9428187744    0.4274916071    2.2543231459
H        5.1247952304   -1.3089352642    2.6412918812
H        4.1929080510   -0.1620685050   -0.0163561678
H        4.3703478302   -1.8871966272    0.3641344991
H        1.2957055164   -1.1077431848    1.1816016834
