16   

C        5.0202478581    1.6401471590    0.1071839842
C        5.3180362585    0.5088486045    0.8043049010
C        3.3530568224    0.2730439071   -0.2439690917
C        2.0817715281   -0.3296392602   -0.7324156873
C        0.4484413065   -2.1483167835   -0.3783324070
N        3.8079575174    1.4804326344   -0.5366910435
N        4.2730225923   -0.3802507834    0.5944221172
N        1.6820491508   -1.4600941398   -0.0278889350
O        1.4027939202    0.0992485114   -1.6584588473
H        5.6395106311    2.5287043529    0.0586346655
H        6.2145055001    0.3527221227    1.3934300792
H        0.2815673643   -2.9939363926    0.2957774846
H        0.5047720015   -2.5284597097   -1.4038525175
H       -0.4041589904   -1.4653028170   -0.2981597524
H        4.2229206778   -1.3464931782    0.9007263138
H        2.1569607006   -1.6884167681    0.8341393926
16   

C        4.9861859186    1.6555187419    0.1830408011
C        5.3487593980    0.4765543861    0.7620564813
C        3.3945584653    0.2445907742   -0.3003654320
C        2.1386443816   -0.3764598304   -0.8111455777
C        0.4182597432   -2.0829144618   -0.3433887998
N        3.7759467857    1.4996846652   -0.4669464992
N        4.3494493263   -0.4407354845    0.4674564326
N        1.6634747682   -1.4061600230   -0.0130035088
O        1.5204514090   -0.0155327598   -1.8059909503
H        5.5583278595    2.5755766585    0.2222543241
H        6.2575176980    0.3089157180    1.3287943861
H        0.1944280215   -2.8501972621    0.4039803739
H        0.4978561916   -2.5663832492   -1.3227994544
H       -0.4097017891   -1.3661429242   -0.3662909676
H        4.3446150502   -1.4356619891    0.6721130407
H        2.0850578278   -1.5385371536    0.8971060313
16   

C        4.9502139835    1.6578513131    0.2657432181
C        5.3902214514    0.4535339705    0.7289000666
C        3.4457440049    0.2042939721   -0.3405223938
C        2.2076256887   -0.4436321883   -0.8725694117
C        0.3995506163   -2.0286111545   -0.3282869508
N        3.7409106592    1.4916661625   -0.3845594771
N        4.4434863501   -0.4912298533    0.3570242643
N        1.6507981480   -1.3610274534   -0.0028496023
O        1.6643692373   -0.1681114134   -1.9359988316
H        5.4670406770    2.6030787916    0.3875661019
H        6.3143511255    0.2887271345    1.2711023264
H        0.1247690731   -2.7264918354    0.4685094972
H        0.5017451631   -2.5925836122   -1.2614657518
H       -0.4046849300   -1.2938313532   -0.4422265652
H        4.4875829738   -1.4991745399    0.4794184243
H        2.0270096189   -1.4126327608    0.9358825892
16   

C        4.8545275642    1.6507164385    0.3420259680
C        5.3947580197    0.4463456635    0.6846911235
C        3.4357236997    0.1489168161   -0.3386515308
C        2.2185095525   -0.5440366870   -0.8785176946
C        0.3433427141   -2.0213268656   -0.2751248453
N        3.6334666034    1.4534098987   -0.2780170278
N        4.5012559861   -0.5299006570    0.2651138859
N        1.5827692643   -1.3330718633    0.0515649966
O        1.7759564739   -0.4091512445   -2.0132885722
H        5.3097510774    2.6170598266    0.5274199040
H        6.3487847822    0.3031588694    1.1791516999
H        0.0234666457   -2.6433903805    0.5664101918
H        0.4858517349   -2.6682439824   -1.1472104621
H       -0.4469958150   -1.2956284598   -0.4947993633
H        4.6096911383   -1.5397577021    0.3090075473
H        1.9042677619   -1.2817790481    1.0111226305
16   

C        4.7886434445    1.6498544824    0.4711232407
C        5.4391556036    0.4656962556    0.6593056086
C        3.4417168515    0.1098057568   -0.2591196885
C        2.2624759378   -0.6234205979   -0.8437305193
C        0.3214996858   -2.0322499360   -0.2965690159
N        3.5462324206    1.4151692403   -0.0926296821
N        4.5935750259   -0.5355404014    0.2010104462
N        1.5021653305   -1.2756062150    0.0902469727
O        2.0410965013   -0.7342339606   -2.0440219073
H        5.1838450072    2.6278515080    0.7216459151
H        6.4335397477    0.3528756890    1.0759146979
H       -0.0944236870   -2.5524516366    0.5717001727
H        0.5779454636   -2.7793211104   -1.0550782117
H       -0.4425789296   -1.3601129561   -0.7013914862
H        4.7767102442   -1.5333236668    0.1315581508
H        1.6964895145   -1.0839256580    1.0666484900
16   

C        4.7727171793    1.6642556112    0.5605657434
C        5.5259012572    0.5273148882    0.5928195758
C        3.4829265686    0.0754595236   -0.1677803410
C        2.3526936735   -0.6885071675   -0.8087449715
C        0.3262435606   -2.0130190624   -0.3508786127
N        3.5081998981    1.3739116539    0.0754409548
N        4.7216674484   -0.5012626486    0.1212274612
N        1.4330520626   -1.1717456771    0.0785593208
O        2.3981726655   -1.1126386197   -1.9582885222
H        5.1139063137    2.6491104139    0.8590003315
H        6.5595171286    0.4640415129    0.9131227376
H       -0.1486464869   -2.4821315213    0.5161859487
H        0.6799575997   -2.8074238846   -1.0164407674
H       -0.4209711334   -1.4115342035   -0.8791566580
H        4.9742925202   -1.4671036935   -0.0736059082
H        1.4716722327   -0.8080940296    1.0246602781
16   

C        4.7297626764    1.6354180882    0.6855153812
C        5.5691679148    0.5677626982    0.5579081181
C        3.5089765870    0.0044672064   -0.0735871949
C        2.4153475424   -0.7846518920   -0.7339572275
C        0.2976873424   -1.9829344414   -0.3348644251
N        3.4558559847    1.2816662283    0.2708790863
N        4.8104368256   -0.4824912694    0.0597739741
N        1.3902791884   -1.1263463176    0.1003718062
O        2.5765249382   -1.3747357594   -1.7973264253
H        5.0176149367    2.6175729746    1.0431689445
H        6.6279322659    0.5651043656    0.7900770067
H       -0.2638934758   -2.3457893144    0.5313391169
H        0.6799171486   -2.8520774760   -0.8803304192
H       -0.3819548466   -1.4236543513   -0.9863472096
H        5.1171028201   -1.4017376989   -0.2507333418
H        1.3513195883   -0.6429557122    0.9918582366
16   

C        4.6986893075    1.5780807142    0.7684727404
C        5.5951044536    0.5841143377    0.5051463285
C        3.5371066733   -0.0768055277   -0.0343336599
C        2.4655950417   -0.8932826960   -0.6819451928
C        0.2638439865   -1.9435649280   -0.3159715908
N        3.4245249438    1.1675542884    0.4095093683
N        4.8737374765   -0.4778922770   -0.0225229259
N        1.3677143191   -1.0938773080    0.1031564785
O        2.6726782180   -1.5929051191   -1.6686625520
H        4.9462083685    2.5490877801    1.1823374302
H        6.6652019807    0.6378361573    0.6691250382
H       -0.3542261811   -2.2100048927    0.5467690033
H        0.6361320955   -2.8699754683   -0.7656444258
H       -0.3586714492   -1.4175561936   -1.0473054417
H        5.2132412730   -1.3526823784   -0.4170788859
H        1.3001835330   -0.5138881536    0.9340179437
16   

C        4.6763924091    1.5234276456    0.8343516791
C        5.6090418075    0.6081802739    0.4423748297
C        3.5610353481   -0.1427786646   -0.0108016826
C        2.5035071606   -0.9922977241   -0.6243145789
C        0.2343890803   -1.9000182441   -0.2871973945
N        3.4060102789    1.0583554817    0.5317606062
N        4.9161666362   -0.4593535829   -0.1115535550
N        1.3555431158   -1.0620168944    0.1079048631
O        2.7267729826   -1.7706118159   -1.5467772103
H        4.8950974083    2.4773250251    1.3008862425
H        6.6829308846    0.7168901560    0.5415906314
H       -0.4231620401   -2.0766051781    0.5694043815
H        0.5852465999   -2.8714554737   -0.6509485580
H       -0.3406728986   -1.4096593420   -1.0795449636
H        5.2754531437   -1.2915857255   -0.5752578145
H        1.2843525301   -0.4070039761    0.8816275861
16   

C        4.6660900648    1.4856448655    0.8907273445
C        5.6129698964    0.6490008763    0.3761319826
C        3.5769968610   -0.1703082301   -0.0072538154
C        2.5293508529   -1.0505446598   -0.5840817702
C        0.2050847598   -1.8263281845   -0.2982716638
N        3.4014719723    0.9772487981    0.6364891848
N        4.9360388015   -0.4116286867   -0.2097359682
N        1.3415912743   -1.0011233169    0.0788877280
O        2.7597399290   -1.8855308243   -1.4538915429
H        4.8702448593    2.4138755493    1.4123768339
H        6.6849442727    0.8038300423    0.4187985796
H       -0.4829542368   -1.9268585659    0.5466264306
H        0.5334415586   -2.8300330516   -0.5880785735
H       -0.3289884859   -1.3702830407   -1.1382723312
H        5.3025841097   -1.2027312922   -0.7359143597
H        1.2753973493   -0.2944796630    0.8071695188
16   

C        4.6710269430    1.4244592618    0.8135022597
C        5.6051639656    0.6301314280    0.2153112737
C        3.5719331028   -0.2383075699   -0.0590719385
C        2.5224963279   -1.1632207415   -0.5525045880
C        0.1494499104   -1.7944138214   -0.2922662700
N        3.4075611273    0.8824392189    0.6328224804
N        4.9213793301   -0.4360196557   -0.3521576827
N        1.3064237372   -0.9701807502    0.0213162391
O        2.7491972554   -2.0807331603   -1.3359334010
H        4.8830186688    2.3444209769    1.3465517180
H        6.6730577316    0.8147301819    0.1937716082
H       -0.4982286421   -1.8808909323    0.5854801820
H        0.4554353879   -2.8049522615   -0.5830421072
H       -0.4199391974   -1.3478304449   -1.1137273232
H        5.2765851443   -1.2160514870   -0.9022927396
H        1.2564592756   -0.1981438152    0.6820898972
16   

C        4.6952778616    1.4614793413    0.8046232594
C        5.6166132799    0.7359333565    0.1074236635
C        3.5961947305   -0.1768895304   -0.1130692496
C        2.5577950162   -1.1330819576   -0.5670933840
C        0.1465699920   -1.6661183250   -0.4126901015
N        3.4404956645    0.8883192009    0.6633734561
N        4.9330740749   -0.3158701173   -0.4864279695
N        1.3119505624   -0.8476541869   -0.1107331554
O        2.8009805997   -2.0931338907   -1.2924758001
H        4.9106425945    2.3528741652    1.3829358718
H        6.6762383974    0.9544383988    0.0411572226
H       -0.4049497898   -1.8854641552    0.5067406443
H        0.4359029991   -2.6212964864   -0.8634229026
H       -0.5121265066   -1.1403793547   -1.1110068686
H        5.2829853732   -1.0639532845   -1.0824890487
H        1.2562558731   -0.0387154772    0.5042488064
16   

C        4.6689113999    1.4313237584    0.8024181973
C        5.5721104664    0.7449482413    0.0444468488
C        3.5596424431   -0.1961683269   -0.1222476130
C        2.5285891396   -1.1854084028   -0.5204617882
C        0.0965376477   -1.6102868177   -0.5654100090
N        3.4205677424    0.8363842567    0.7001405841
N        4.8828189024   -0.3021354431   -0.5511653584
N        1.2586465261   -0.8040161030   -0.2252516832
O        2.7861542846   -2.2109259402   -1.1441266055
H        4.8933413836    2.3079815436    1.3995061837
H        6.6244544404    0.9838988029   -0.0575947398
H       -0.1533256151   -2.2799828090    0.2637553268
H        0.2855119179   -2.2119611835   -1.4607549370
H       -0.7611567857   -0.9630922025   -0.7725431839
H        5.2261204355   -1.0407271192   -1.1626357734
H        1.1752384042    0.0849383021    0.2625614790
16   

C        4.6549739979    1.5239314972    0.8331959514
C        5.5412397015    0.8990577043    0.0052896452
C        3.5629827459   -0.1221022534   -0.0793840855
C        2.5629940109   -1.1690732804   -0.4095087915
C        0.1453280127   -1.6182895273   -0.6065862405
N        3.4304608704    0.8752787027    0.7865086100
N        4.8641929533   -0.1613057033   -0.5809263353
N        1.2717681472   -0.7578005937   -0.2817001897
O        2.8608197456   -2.2400099639   -0.9303201650
H        4.8763504776    2.3920826197    1.4437003771
H        6.5756282878    1.1852872785   -0.1464814344
H       -0.0648916746   -2.2945850524    0.2284254648
H        0.3566297105   -2.2128655053   -1.5016061777
H       -0.7444861191   -1.0132409683   -0.8053419777
H        5.2101268537   -0.8804801644   -1.2135244105
H        1.1440872128    0.1639651276    0.1283812949
16   

C        4.6859597698    1.4894018068    0.8837846680
C        5.5132255154    0.9424519235   -0.0530374512
C        3.5535548279   -0.1174133853   -0.0491424296
C        2.5590459430   -1.1873761687   -0.3365048661
C        0.1574082937   -1.6317645619   -0.6845836721
N        3.4760627884    0.8128176236    0.8941469796
N        4.8115595752   -0.0944852750   -0.6521762714
N        1.2668597236   -0.7527567114   -0.3502165672
O        2.8736454767   -2.2851893878   -0.7863837662
H        4.9399108112    2.3202011627    1.5323892348
H        6.5267311993    1.2622691814   -0.2661630306
H       -0.0980751579   -2.2587896261    0.1759571750
H        0.4148635711   -2.2767739839   -1.5312157266
H       -0.7197790244   -1.0403324639   -0.9640000075
H        5.1272356668   -0.7743792848   -1.3412419577
H        1.1136395290    0.1891984283   -0.0009301796
16   

C        4.7337528444    1.4549382687    0.9497594721
C        5.4795378910    0.9874715946   -0.0924255443
C        3.5484611130   -0.1172586434    0.0247179265
C        2.5552748425   -1.2076892152   -0.2175901739
C        0.1852249785   -1.6695572630   -0.7218512077
N        3.5443931865    0.7478720267    1.0295240666
N        4.7449798644   -0.0285483028   -0.6880691193
N        1.2740826509   -0.7672921664   -0.3805686888
O        2.8848983585   -2.3359101344   -0.5703394304
H        5.0316966148    2.2497726943    1.6242015646
H        6.4630636269    1.3438643622   -0.3762302128
H       -0.1248743662   -2.2358455287    0.1625784666
H        0.4931456653   -2.3710597231   -1.5042320175
H       -0.6717738330   -1.1005633306   -1.0948408463
H        5.0165264766   -0.6658720234   -1.4339081637
H        1.0964248468    0.1978658651   -0.1194436464
16   

C        4.7946655310    1.4075727249    1.0216900380
C        5.4382778857    1.0242442680   -0.1183072682
C        3.5459282549   -0.1260865222    0.1188487462
C        2.5397718985   -1.2212609754   -0.0886865250
C        0.2151520911   -1.6959532459   -0.7598299664
N        3.6298413600    0.6723063237    1.1715854794
N        4.6625866381    0.0330120989   -0.7036327019
N        1.2903313059   -0.7783933421   -0.4148611470
O        2.8647610460   -2.3843387744   -0.3044730837
H        5.1474556459    2.1629257231    1.7147875933
H        6.3835604546    1.4183863112   -0.4732498710
H       -0.1639252583   -2.1871850571    0.1424613196
H        0.5672821630   -2.4600493689   -1.4606892292
H       -0.6060344891   -1.1513752456   -1.2356794874
H        4.8733938628   -0.5513109334   -1.5096102410
H        1.1072228584    0.2091027361   -0.2690713124
16   

C        4.8728792787    1.3131096043    1.0789613309
C        5.3811149990    1.0324571800   -0.1554991588
C        3.5580667180   -0.1884563501    0.2217104678
C        2.5165119499   -1.2627034616    0.0398764768
C        0.2412213768   -1.7171028092   -0.7889938588
N        3.7463317865    0.5402931567    1.3076440882
N        4.5591604890    0.0656707742   -0.7184184578
N        1.3287912553   -0.8083404739   -0.4595645859
O        2.7828741299   -2.4595384294    0.0333023375
H        5.2921023217    2.0252746720    1.7807342242
H        6.2690814447    1.4784406359   -0.5885970776
H       -0.2266484707   -2.0922106999    0.1272940994
H        0.6103882366   -2.5658963997   -1.3741696604
H       -0.5163449021   -1.1977836703   -1.3837955979
H        4.6805630589   -0.4415250430   -1.5917123453
H        1.1843758024    0.1956437702   -0.4606317618
16   

C        4.9088919599    1.2293853340    1.0922195578
C        5.2709048838    1.0536168689   -0.2111846321
C        3.5488199585   -0.2649533940    0.2944957795
C        2.4515522293   -1.2848950335    0.1341041782
C        0.2195615876   -1.6764570683   -0.8232268382
N        3.8334757394    0.4108532980    1.3921617092
N        4.4110108897    0.1022552789   -0.7431709605
N        1.3734538840   -0.8261212921   -0.5750923971
O        2.5324678151   -2.4526362493    0.4971761049
H        5.3906480192    1.9049517434    1.7900341346
H        6.0879668403    1.5606894659   -0.7115630590
H       -0.2840355063   -1.9151717242    0.1195722571
H        0.5287446930   -2.6080880669   -1.3087020075
H       -0.4911515265   -1.1657432692   -1.4801526612
H        4.4283265718   -0.3159997808   -1.6698296754
H        1.3389358798    0.1657172358   -0.7822827593
16   

C        5.0027979592    1.1251511343    1.1192752239
C        5.2175207062    1.0620306019   -0.2259893425
C        3.5691913204   -0.3222545370    0.3569981397
C        2.4314409051   -1.2928350116    0.2278915038
C        0.2355057935   -1.6485403870   -0.8276884843
N        3.9686570098    0.2737745894    1.4658413354
N        4.3069830111    0.1468641578   -0.7367205321
N        1.4489899161   -0.8691132509   -0.6365441346
O        2.3280830784   -2.3443314811    0.8487218617
H        5.5557932393    1.7478649061    1.8134235801
H        5.9710857153    1.6208067971   -0.7691926131
H       -0.3311123188   -1.7038636431    0.1079485320
H        0.4830777435   -2.6638198163   -1.1551866594
H       -0.3952064424   -1.1843739192   -1.5920296594
H        4.2226215977   -0.1866511684   -1.6933537709
H        1.5152203183    0.0751384450   -0.9981293270
16   

C        5.1143283733    1.0741160489    1.1294263563
C        5.2033122115    1.1018765327   -0.2306443120
C        3.5879986625   -0.3018244100    0.4075761471
C        2.4358386728   -1.2509323584    0.3205404692
C        0.3008205555   -1.6882435631   -0.8319930139
N        4.1040013460    0.2101701810    1.5112074467
N        4.2351449032    0.2330376305   -0.7153529555
N        1.5228885528   -0.9171695976   -0.6611770699
O        2.2413632172   -2.2006270299    1.0703224753
H        5.7385564280    1.6418843890    1.8101499462
H        5.9128944734    1.6896434440   -0.8017691026
H       -0.3050269464   -1.6469391457    0.0795622150
H        0.5395644373   -2.7337151579   -1.0540580217
H       -0.2881602521   -1.2848945257   -1.6613515975
H        4.0700370768   -0.0402909605   -1.6801900772
H        1.6295686662   -0.0220937155   -1.1225646713
16   

C        5.1720358580    1.0055679172    1.1436782757
C        5.1603089598    1.1350262285   -0.2127061575
C        3.5382372493   -0.2581225233    0.4426320914
C        2.3686705432   -1.1811280171    0.3785961021
C        0.3147057956   -1.7215089392   -0.8782731079
N        4.1632910409    0.1452717391    1.5358146059
N        4.1267149069    0.3374671852   -0.6843134092
N        1.5305477178   -0.9419754838   -0.7000397653
O        2.1020160773   -2.0492029530    1.2016935369
H        5.8664108229    1.4984174763    1.8147471297
H        5.8475959624    1.7416483489   -0.7913099683
H       -0.3404732294   -1.6086720137   -0.0077477321
H        0.5591422904   -2.7814771236   -1.0049269439
H       -0.2255733524   -1.3824561433   -1.7673883217
H        3.8950499860    0.1354184743   -1.6524529579
H        1.6723614210   -0.0962034194   -1.2368021514
16   

C        5.0834911172    1.3611886332   -0.2698331049
C        5.2529342989    0.4072236486    0.6871300643
C        3.2538098348    0.1682860226   -0.2934775001
C        1.8966973811   -0.3547988696   -0.6143295699
C        0.3674707475   -2.2780470283   -0.3637994034
N        3.8459737994    1.2043607713   -0.8645657948
N        4.0992647424   -0.3645241426    0.6950872478
N        1.6456277818   -1.6279538838   -0.1148627204
O        1.0445631986    0.2366356102   -1.2674757729
H        5.8044398269    2.1298518100   -0.5243256886
H        6.1276232610    0.3004180837    1.3184877133
H        0.3575033355   -3.2774915819    0.0815693066
H        0.1933168757   -2.3747241192   -1.4409146614
H       -0.4470810271   -1.6939273243    0.0774409593
H        3.8648490727   -1.1051549203    1.3481332399
H        2.4153102244   -2.1619297441    0.2635768849
16   

C        5.0683571720    1.6191907563    0.0278796695
C        5.2975945825    0.5658742077    0.8594307997
C        3.3389142602    0.3012334834   -0.1957897220
C        2.0515908334   -0.2837419663   -0.6657058408
C        0.4727365396   -2.1720701562   -0.4434735017
N        3.8600386838    1.4424515585   -0.6179987562
N        4.2104456707   -0.2886076940    0.7374377715
N        1.7083713091   -1.4962943763   -0.0755069432
O        1.3159364069    0.2185217077   -1.5080834428
H        5.7322379599    2.4648088300   -0.1119957323
H        6.1743330114    0.4398791061    1.4843482009
H        0.3892961690   -3.1252130770    0.0874378066
H        0.4557405883   -2.3731759980   -1.5200039058
H       -0.3912371505   -1.5510500730   -0.1835463340
H        4.0844726604   -1.1788047557    1.2060890272
H        2.2945980083   -1.8828253641    0.6487861155
