29

C      2.04973   -1.03985   -0.15940
C      3.19882   -1.18071    0.62764
C      0.79824   -0.93887    0.45645
C      3.10448   -1.19813    2.01990
C      0.68875   -0.97255    1.84889
C      1.18204   -0.70815    6.14647
C      2.25535   -1.62701    6.04788
C      1.84782   -1.08328    2.62605
C      0.89698   -0.35641    4.83908
C     -0.12844    0.61249    4.33390
C     -0.61142    2.58858    2.99133
C      1.74638    2.04372    3.49226
N      2.60372   -1.84825    4.78105
N      1.76457   -1.06856    4.04446
N      0.33830    1.70529    3.65571
O     -1.32707    0.40124    4.53688
H      2.12853   -1.02038   -1.24292
H      4.17411   -1.27063    0.15681
H     -0.10198   -0.85304   -0.14607
H      3.98461   -1.30336    2.64481
H     -0.28724   -0.93575    2.32117
H      0.68597   -0.33738    7.03260
H      2.77976   -2.14405    6.84206
H     -0.55322    3.60039    3.41009
H     -1.61800    2.19955    3.13577
H     -0.38450    2.63933    1.91923
H      2.09180    1.82525    2.47444
H      2.36252    1.49035    4.19949
H      1.88268    3.11348    3.68554
