24

C      0.82422   -2.91066    2.00195
C      1.19044   -3.06909   -0.43922
C      0.56101   -2.83055    7.79835
C      0.02312   -2.69747    4.39549
C      1.27301   -2.23738    5.16252
C      0.29503   -3.66758    3.23546
N      1.30529   -4.67504    3.60009
N      0.73488   -3.61697    0.83200
O      1.31709   -1.78571    2.05604
S      1.77436   -3.34963    6.53659
H      0.41374   -2.46915   -0.92937
H      1.48680   -3.88492   -1.10386
H      2.05133   -2.42665   -0.25061
H      0.73890   -3.43770    8.68956
H     -0.46792   -2.99631    7.46474
H      0.69312   -1.77605    8.05853
H     -0.68355   -3.16874    5.08831
H     -0.48182   -1.82034    3.97868
H      1.11233   -1.24291    5.58928
H      2.13060   -2.17143    4.49363
H     -0.67583   -4.11667    2.95475
H      1.34049   -5.42478    2.91360
H      1.08992   -5.08109    4.50909
H      0.17327   -4.45761    0.81960
