30

C      5.46124   -1.97579   -1.38697
C      5.43560   -2.39886   -0.05440
C      4.57545   -0.97819   -1.81225
C      4.53904   -1.81253    0.84740
C      3.68329   -0.39392   -0.90983
C      3.66813   -0.79383    0.43351
C      2.63339    3.10443    0.61988
C      3.05292    4.22724   -0.30679
C      4.75763    0.96904    2.71450
C      2.76779   -0.09245    1.43272
C      3.40910    1.20100    2.00721
N      3.61013    2.24439    1.00771
O      1.45954    2.98708    1.00233
O      5.86699    0.93526    1.81508
O      1.50471    0.17001    0.84116
H      6.15370   -2.42954   -2.09107
H      6.10268   -3.18856    0.28150
H      4.57835   -0.65987   -2.85184
H      4.51106   -2.16087    1.87840
H      2.97684    0.36156   -1.23743
H      2.41748    4.20601   -1.19566
H      2.87668    5.18032    0.19984
H      4.10200    4.17229   -0.60863
H      4.70698    0.05623    3.32140
H      4.95634    1.80834    3.38512
H      2.62842   -0.76005    2.29763
H      2.70002    1.58850    2.74827
H      4.55635    2.34489    0.65776
H      5.82232    0.10502    1.30890
H      1.24062    1.09510    1.02863
