31

C     -7.53521    1.35033    0.42051
C     -1.33546   -0.06807    0.75826
C     -1.43269    1.21309    0.22372
C     -3.03019    1.89490    1.95963
C     -3.03316   -1.32736    3.70467
C     -7.81803    2.07918    1.60182
C     -2.96316    0.59297    2.49567
C     -3.56767   -0.05053    3.64881
C     -2.09730   -0.36110    1.89406
C     -2.26729    2.17206    0.83370
C     -7.07573    2.05983    2.76434
C     -8.80071    3.37132    3.00086
C     -4.52629    0.49149    4.61569
C     -9.67988    4.28935    3.76993
N     -7.24058    0.71519   -0.51458
N     -8.91323    2.93693    1.79029
N     -5.58097    1.20107    4.38487
N     -2.16440   -1.51758    2.65576
N     -5.88809    1.46040    3.07174
O     -7.67781    2.87132    3.66474
Br    -2.33666    3.93278    0.07362
H     -0.68258   -0.80756    0.30234
H     -0.86196    1.48007   -0.65902
H     -3.65214    2.65820    2.41269
H     -3.22904   -2.11966    4.41543
H     -4.37078    0.27260    5.67055
H    -10.07943    3.79203    4.65981
H     -9.12848    5.17567    4.09992
H    -10.50689    4.59836    3.12994
H     -1.67350   -2.37825    2.45692
H     -5.49028    0.87438    2.33723
