44

C     -1.66468    3.86659   -5.53497
C     -2.23242    2.62129   -3.51189
C     -2.57874    3.08246   -4.76447
C     -3.10823    1.84764   -2.70926
C     -4.37538    1.57324   -3.20354
C     -3.88946    2.78049   -5.32958
C      0.66420   -1.11987    1.07113
C     -2.73577    1.42932   -1.31839
C      2.81506    0.60548   -0.09428
C      1.38239    1.09673    0.15277
C      0.25821   -0.63387   -1.38959
C      3.03068   -0.84692    0.38845
C     -0.57952    0.39142   -2.16124
C     -1.08133    0.50964    0.22487
C      0.34400   -0.03343    0.03851
C     -5.45028    0.82625   -2.46719
C      2.38759   -2.40230    2.21617
N     -0.88682    4.49574   -6.13338
N     -4.69493    2.02181   -4.44870
N      1.99970   -1.31686    1.32020
N     -1.47631    0.94084   -1.12937
O     -4.32444    3.10873   -6.42747
O     -0.22114   -1.75305    1.64910
O     -3.53490    1.54670   -0.38213
H     -1.25644    2.88706   -3.11819
H      3.05811    0.65624   -1.15993
H      3.51483    1.27538    0.41309
H      1.30484    1.51106    1.16332
H      1.13750    1.91450   -0.53310
H     -0.27030   -1.59097   -1.34078
H      1.22953   -0.80346   -1.85937
H      3.08238   -1.53118   -0.47041
H      3.99126   -0.93159    0.90310
H      0.06380    1.17080   -2.58579
H     -1.14469   -0.05734   -2.98172
H     -1.75327   -0.26767    0.59491
H     -1.12722    1.35203    0.91883
H     -5.98477    1.51124   -1.80226
H     -5.02826    0.04607   -1.83434
H     -6.16334    0.38078   -3.16741
H      2.62717   -3.31667    1.65649
H      1.56165   -2.61570    2.89270
H      3.26885   -2.10120    2.79096
H     -5.61543    1.81482   -4.82801
