27

C      0.00453    5.11534   -0.67410
C     -0.62209   -0.43756    0.38779
C     -0.65067    0.62307    1.29547
C      0.30290   -1.47490    0.52840
C      1.17078   -0.39912    2.52940
C     -0.14078    5.61538    0.64307
C      0.25747    0.65930    2.37148
C      1.18954   -1.44348    1.60822
C     -0.17701    4.85875    1.79568
C     -0.39221    6.97099    2.28375
C      0.27636    1.73918    3.38102
C     -0.55390    8.10944    3.22406
N      0.12426    4.62258   -1.72650
N     -0.28371    6.96580    0.99749
N      0.09525    3.00864    3.23773
N     -0.14486    3.50472    1.98695
O     -0.33694    5.69200    2.84705
Cl     2.34476   -2.74689    1.81189
H     -1.32917   -0.46072   -0.43647
H     -1.41098    1.39082    1.19239
H      0.33195   -2.29773   -0.17853
H      1.86788   -0.39895    3.36227
H      0.50641    1.44968    4.40510
H     -1.47857    8.01140    3.80180
H      0.28085    8.15306    3.93109
H     -0.58575    9.03523    2.64890
H      0.08920    2.95263    1.16119
