31

C     -5.94572    4.76417    0.26331
C     -2.44322   -2.30211    1.68263
C     -3.05183   -3.49159    2.07224
C     -4.91309   -2.28101    3.12066
C     -3.66709    1.06182    2.28956
C     -6.76706    4.85187    1.41320
C     -4.30479   -1.07194    2.73843
C     -4.67471    0.32154    2.90365
C     -3.07926   -1.10372    2.02364
C     -4.27084   -3.46419    2.78095
C     -6.79392    3.93774    2.44670
C     -8.18209    5.56707    2.85365
C     -5.84538    0.76910    3.64364
C     -9.20637    6.26918    3.66888
N     -5.22495    4.60628   -0.64305
N     -7.67007    5.88379    1.71154
N     -6.50033    1.88261    3.58083
N     -2.71769    0.21108    1.77450
N     -6.04887    2.81201    2.66845
O     -7.67959    4.36871    3.37106
Br    -5.07090   -5.13650    3.28002
H     -1.50654   -2.31651    1.13203
H     -2.59243   -4.44362    1.82947
H     -5.85692   -2.29795    3.65544
H     -3.51501    2.13112    2.24001
H     -6.26580    0.06470    4.35869
H    -10.08682    5.63593    3.81881
H     -8.80956    6.53088    4.65509
H     -9.50364    7.17972    3.14781
H     -1.89472    0.50798    1.26806
H     -5.55828    2.47123    1.83902
