29   

C        3.0827275423   -2.8230740931    0.6829626136
C        2.3885912984   -1.6798703192    0.2788248031
C        2.9338969348   -3.2995199697    1.9880417367
C        1.5431390956   -1.0183780294    1.1766318963
C        2.0987789910   -2.6289314312    2.8887521344
C       -0.1545394243   -4.4151515481    5.6945505154
C       -0.0342617310   -5.6824072229    5.1184475115
C       -1.3773993374   -3.6737546190    3.7518093294
C        1.3909331718   -1.4815425091    2.4939293585
C       -0.8158820302   -3.3933173371    5.0058431970
C       -0.5708762410   -5.9548556740    3.8535290140
C       -1.2554066619   -4.9379028113    3.1635920133
C        0.5091501165   -0.7873169015    3.4275816395
C        0.3878060838   -0.8933446838    4.8032310948
O       -2.2157294296   -1.0964335513    5.3493928819
O       -0.6328253906   -1.7134075463    7.1423281492
S       -0.9261336337   -1.7117408648    5.7003690675
Cl      -0.3790116287   -7.5496074699    3.1585206107
Cl      -1.9475891329   -5.2210240110    1.5808571925
H        3.7344229144   -3.3385074814   -0.0138545678
H        2.5060254041   -1.3041164204   -0.7314455886
H        3.4654542669   -4.1903639189    2.3029420094
H        1.0137603256   -0.1316789976    0.8455054488
H        1.9922038824   -3.0136361925    3.8966411792
H        0.2701913453   -4.2226389341    6.6770093781
H        0.4836121015   -6.4693865440    5.6540385805
H       -1.9101522004   -2.8953339982    3.2126848351
H       -0.1925050144   -0.0959293573    2.9713018456
H        1.2373288879   -0.6466028202    5.4196884075
29   

C        2.8597793243   -3.1014889257    0.8814053179
C        2.1764491290   -1.9843887734    0.3950576412
C        2.7970983640   -3.4141271936    2.2414377673
C        1.4259809362   -1.1866452252    1.2661129708
C        2.0526372451   -2.6109268173    3.1122876104
C       -0.0702995476   -4.3965313750    5.5537187470
C        0.1148203147   -5.6120747543    4.8896412957
C       -1.2405313142   -3.5480008806    3.6224823257
C        1.3501342919   -1.4909951026    2.6357523453
C       -0.7347519315   -3.3448646655    4.9147869466
C       -0.3586317390   -5.8022348344    3.5849196941
C       -1.0503396748   -4.7577734808    2.9455509466
C        0.5415697750   -0.6668667387    3.5329816962
C        0.3628656861   -0.7591282830    4.8918645275
O       -2.2264440784   -1.1342546360    5.4091658995
O       -0.6278510973   -1.7975812279    7.1588437885
S       -0.9112073709   -1.7173103522    5.7170195953
Cl      -0.0781433899   -7.3292797117    2.7773910931
Cl      -1.6617534363   -4.9365463067    1.3151006186
H        3.4370229940   -3.7230244463    0.2058478852
H        2.2256378994   -1.7367975372   -0.6594318255
H        3.3249366319   -4.2808385507    2.6227787952
H        0.8986471583   -0.3270969131    0.8672591779
H        2.0182003916   -2.8681805699    4.1644192001
H        0.3103722804   -4.2652716162    6.5638933582
H        0.6373052285   -6.4214358891    5.3857530518
H       -1.7746339382   -2.7465729425    3.1199301583
H        0.0680219829    0.1955287789    3.0743974068
H        0.9144184833   -0.1035150108    5.5474769460
29   

C        2.7157626103   -3.3353544318    1.1725434427
C        1.9452493151   -2.3350714374    0.5749348655
C        2.8051015323   -3.4020898081    2.5646811855
C        1.2585080692   -1.4092041948    1.3685753467
C        2.1169726806   -2.4765302510    3.3565332045
C        0.0395126635   -4.3528883142    5.2820513871
C        0.2440696102   -5.4971226205    4.5065320793
C       -1.2241884088   -3.3812554321    3.4718170650
C        1.3233561206   -1.4752888117    2.7703028578
C       -0.6781247578   -3.2722187805    4.7590999302
C       -0.2622212827   -5.5865796986    3.2034770755
C       -1.0123439436   -4.5170690707    2.6824138346
C        0.5569883417   -0.5315974344    3.5915111066
C        0.3097579057   -0.6052979790    4.9287815607
O       -2.2231822836   -1.1799575314    5.5276450150
O       -0.5126113536   -1.9186539705    7.1195027577
S       -0.8679583327   -1.7244330323    5.7045950168
Cl       0.0522816430   -7.0201861614    2.2505087397
Cl      -1.6655172262   -4.5705924033    1.0593155633
H        3.2434455585   -4.0563661099    0.5581064826
H        1.8750502710   -2.2799913715   -0.5056358892
H        3.4058741257   -4.1735289135    3.0326500928
H        0.6577888459   -0.6466800162    0.8853094501
H        2.1999359799   -2.5424043125    4.4353343139
H        0.4500476981   -4.2970657434    6.2873616365
H        0.8107998939   -6.3268321316    4.9118285046
H       -1.8015721919   -2.5587341888    3.0599530892
H        0.2205844714    0.3724237471    3.0937584364
H        0.5658690156    0.2312571311    5.5605221981
29   

C        2.6437583746   -3.4014513787    1.2832856065
C        1.8779030393   -2.4190428774    0.6510360456
C        2.7495399113   -3.4076243013    2.6758926806
C        1.2115980555   -1.4509945754    1.4110108303
C        2.0796031646   -2.4413516201    3.4341843294
C        0.0357765689   -4.3787523163    5.1724214152
C        0.2409013967   -5.5064321736    4.3737903586
C       -1.2293352302   -3.3695347575    3.3839099094
C        1.2882190430   -1.4597054698    2.8135285382
C       -0.6824559483   -3.2869665375    4.6726974858
C       -0.2655405261   -5.5688513687    3.0695256942
C       -1.0163770319   -4.4889144441    2.5709786140
C        0.5491190935   -0.4630326373    3.6015159598
C        0.1777163589   -0.5370859577    4.9009296734
O       -2.2788964446   -1.2963891438    5.5828920772
O       -0.4634006901   -1.9936349259    7.0563299295
S       -0.8888016516   -1.7705383933    5.6650201126
Cl       0.0488114066   -6.9828505021    2.0876898331
Cl      -1.6708633751   -4.5104219737    0.9477676450
H        3.1560010535   -4.1547760951    0.6951144741
H        1.7959166948   -2.4102742083   -0.4300756920
H        3.3490310756   -4.1633729377    3.1703054456
H        0.6155024678   -0.7016014741    0.9021414543
H        2.1764351934   -2.4573385594    4.5139411745
H        0.4445938440   -4.3452841454    6.1794558397
H        0.8073250773   -6.3442097297    4.7625843429
H       -1.8094210085   -2.5401161609    2.9905826527
H        0.3354050244    0.4741768558    3.0973798114
H        0.2521535874    0.3518858673    5.5084563397
29   

C        3.1718966809   -3.5252148255    1.9038046423
C        2.1958194657   -2.9818446152    1.0642980848
C        3.2663941429   -3.0918554847    3.2285643132
C        1.3157526301   -2.0073282797    1.5488799764
C        2.3790756906   -2.1258244678    3.7149168801
C        0.1538814635   -4.2828827593    4.5095126140
C        0.0275170988   -5.2869298694    3.5488495149
C       -1.7922812207   -3.1879561151    3.6003220021
C        1.3863902772   -1.5765131221    2.8832335265
C       -0.7424541683   -3.2083769892    4.5286266841
C       -0.9971742462   -5.2471475810    2.5969589965
C       -1.9243035939   -4.1886837893    2.6284949813
C        0.4412454624   -0.5694488990    3.3935683275
C        0.0186328725   -0.4506164304    4.6670491825
O       -1.7829170591   -1.4738694873    6.3473153040
O        0.5445611786   -2.1511694674    6.6805688163
S       -0.5093428163   -1.8299401467    5.7032337407
Cl      -1.0992067667   -6.5078363446    1.3874220786
Cl      -3.2267235069   -4.0911463565    1.4634723373
H        3.8564471353   -4.2771747807    1.5272452200
H        2.1190168338   -3.3170284029    0.0360385011
H        4.0289817227   -3.5010345810    3.8818580258
H        0.5605782989   -1.6012608698    0.8851628370
H        2.4721017639   -1.7967317611    4.7452146492
H        0.9677221025   -4.3246108702    5.2290827284
H        0.7405253784   -6.1024737363    3.5301943878
H       -2.5095628832   -2.3727481354    3.6160472554
H        0.0799242344    0.1643831287    2.6803157149
H       -0.3073632819    0.5093036692    5.0373693390
29   

C        3.1594954320   -3.5431261202    1.9668059488
C        2.1893755951   -3.0025671247    1.1186022695
C        3.2685963910   -3.0788938649    3.2800090589
C        1.3298951757   -2.0004007041    1.5832585190
C        2.4008957819   -2.0855933848    3.7466389001
C        0.1694389508   -4.2871259721    4.4362560785
C        0.0229202040   -5.2906105880    3.4779829156
C       -1.7941852459   -3.1905715496    3.5681253149
C        1.4135482124   -1.5401628956    2.9068730432
C       -0.7266545643   -3.2129879978    4.4758147420
C       -1.0216634443   -5.2503492216    2.5480949248
C       -1.9468968461   -4.1909465523    2.5988340128
C        0.4914195913   -0.4965766593    3.3940130478
C       -0.0667401049   -0.4280106557    4.6129763685
O       -1.7219084173   -1.5453840694    6.3764042096
O        0.6424464472   -2.1367730564    6.5679905532
S       -0.4748764917   -1.8412608197    5.6546260127
Cl      -1.1508323334   -6.5119214842    1.3420541101
Cl      -3.2737398657   -4.0928856518    1.4617272358
H        3.8286595606   -4.3161674278    1.6056172820
H        2.1014072033   -3.3608921047    0.0990805447
H        4.0275718472   -3.4845509827    3.9397038722
H        0.5794443150   -1.5954753142    0.9134921008
H        2.5073326591   -1.7300689987    4.7666890156
H        0.9976814913   -4.3298577323    5.1391102649
H        0.7349542747   -6.1065216883    3.4447184978
H       -2.5107744858   -2.3752990980    3.5990048063
H        0.2209959079    0.2790382128    2.6847203825
H       -0.5071756738    0.4973204701    4.9516349412
29   

C        3.1322511381   -3.5610853534    2.0039775982
C        2.1648899365   -3.0057200727    1.1621591318
C        3.2659620497   -3.0893987724    3.3123999106
C        1.3331828363   -1.9812282639    1.6284729837
C        2.4250140454   -2.0739757234    3.7808279205
C        0.1832676257   -4.2961005110    4.4224882694
C        0.0401770750   -5.3056606635    3.4700147675
C       -1.7887162998   -3.2158447206    3.5533570513
C        1.4412729649   -1.5138681593    2.9476182170
C       -0.7196096939   -3.2277304873    4.4593284595
C       -1.0072315264   -5.2768152879    2.5428573345
C       -1.9381878520   -4.2223233362    2.5899360609
C        0.5488647022   -0.4412576017    3.4356859218
C       -0.1477296657   -0.4286973687    4.5801756972
O       -1.7133030967   -1.5957141871    6.3886696063
O        0.6725446547   -2.1126501065    6.5169234739
S       -0.4769931785   -1.8506471920    5.6335721607
Cl      -1.1328972045   -6.5463307907    1.3447969727
Cl      -3.2687651037   -4.1382932568    1.4560198406
H        3.7802556755   -4.3512866569    1.6413754508
H        2.0575444406   -3.3695409410    0.1464453844
H        4.0232407033   -3.5063935819    3.9669329607
H        0.5845907334   -1.5636844267    0.9643731933
H        2.5498662676   -1.7117236068    4.7963535515
H        1.0133499952   -4.3300388898    5.1235924978
H        0.7567941887   -6.1176196827    3.4394621259
H       -2.5098382940   -2.4045328113    3.5812846977
H        0.3744146711    0.3833835416    2.7520557865
H       -0.6776952967    0.4631141983    4.8780349151
29   

C        2.0076808724   -3.0247393061    0.8733535819
C        1.0416818186   -2.0155345815    0.8959114445
C        2.7876558475   -3.2639419155    2.0078362980
C        0.8465807959   -1.2578888385    2.0560303914
C        2.5997285500   -2.4966235543    3.1631257639
C       -0.2429046187   -3.9843763016    5.4234382510
C        0.1779313096   -5.2805129174    5.1142766580
C       -0.9523102750   -3.6948866489    3.1379963565
C        1.6157291648   -1.4970033359    3.2072990660
C       -0.7942858350   -3.1705171714    4.4292103550
C        0.0490515303   -5.7915516087    3.8166122483
C       -0.5308624933   -4.9902282427    2.8172046156
C        1.4060280251   -0.7056417971    4.4417799888
C        0.2770703249   -0.6177839738    5.1553639018
O       -1.9249357869   -0.8293436849    3.6176332224
O       -2.1257938532   -1.3938935088    5.9879333826
S       -1.2765517802   -1.4461422823    4.7877277856
Cl       0.6117531070   -7.4110528051    3.4652031586
Cl      -0.7217816291   -5.5770419236    1.1788593085
H        2.1515012719   -3.6198024148   -0.0217212398
H        0.4399724252   -1.8195680018    0.0153781256
H        3.5364154027   -4.0478413412    1.9932366679
H        0.0955918452   -0.4740994687    2.0562495552
H        3.2083138707   -2.6970066996    4.0376774971
H       -0.1316546682   -3.6054017359    6.4356160624
H        0.6153935251   -5.9025347107    5.8860303677
H       -1.3937954434   -3.0812296809    2.3578236214
H        2.2966714534   -0.2765250183    4.8893745252
H        0.2545699279   -0.0296857737    6.0600052072
29   

C        2.0226116530   -3.0171996740    0.8424660471
C        1.0502633435   -2.0159248479    0.9013493554
C        2.8118862287   -3.2842076912    1.9641217225
C        0.8575109999   -1.2948416094    2.0847244337
C        2.6256153450   -2.5540279039    3.1435914086
C       -0.2633952226   -3.9632116328    5.4398241233
C        0.1642649020   -5.2610859503    5.1477023681
C       -0.9622512502   -3.7030456883    3.1474833521
C        1.6336162947   -1.5642902764    3.2254498053
C       -0.8120943951   -3.1628115917    4.4332056294
C        0.0449519025   -5.7872117757    3.8551293379
C       -0.5331476001   -4.9998815019    2.8436293048
C        1.4256990953   -0.8172853644    4.4828525855
C        0.2570139186   -0.5880982184    5.0975551352
O       -1.9650575405   -0.8412359257    3.5961923310
O       -2.1299309336   -1.3624116499    5.9780248259
S       -1.2969987932   -1.4340557103    4.7674585603
Cl       0.6174986567   -7.4077095942    3.5248699086
Cl      -0.7113190929   -5.6053493431    1.2106853212
H        2.1649400328   -3.5836648563   -0.0712074551
H        0.4422737951   -1.7968187325    0.0306088560
H        3.5667500119   -4.0611617005    1.9206643547
H        0.1035888197   -0.5144491755    2.1093035417
H        3.2420752072   -2.7773218672    4.0069852455
H       -0.1588215838   -3.5720331934    6.4480968418
H        0.6001925866   -5.8725211993    5.9287332725
H       -1.4018558196   -3.1002518817    2.3577908239
H        2.3218434230   -0.4958203183    5.0037128810
H        0.2185494241    0.0697579746    5.9522817774
29   

C        2.0623890873   -3.0033780241    0.8253821382
C        1.0718779691   -2.0216144603    0.9035970508
C        2.8539223122   -3.2804865900    1.9429561545
C        0.8636198401   -1.3300450732    2.1017050995
C        2.6516055213   -2.5804040438    3.1379959125
C       -0.2811753807   -3.9377954761    5.4571039779
C        0.1568716931   -5.2332299200    5.1692921352
C       -0.9841772638   -3.6921341498    3.1642812983
C        1.6419007246   -1.6102842881    3.2391436890
C       -0.8361907214   -3.1453425251    4.4476115820
C        0.0418586903   -5.7647006939    3.8784520902
C       -0.5437690666   -4.9860448093    2.8646132521
C        1.4140846867   -0.9000541771    4.5103590949
C        0.2256777130   -0.5425296280    5.0241797964
O       -2.0454271873   -0.8517215112    3.6170505942
O       -2.1161941459   -1.3315679471    6.0127794446
S       -1.3288064744   -1.4169174453    4.7729807657
Cl       0.6293142069   -7.3808437166    3.5531062245
Cl      -0.7162819424   -5.5979562392    1.2334827072
H        2.2171048730   -3.5467218327   -0.1002375617
H        0.4618578326   -1.7947420935    0.0362618889
H        3.6230731509   -4.0422726445    1.8841374697
H        0.0945504172   -0.5650655940    2.1402792775
H        3.2702020409   -2.8127395226    3.9974437746
H       -0.1791944240   -3.5419152492    6.4638588070
H        0.5982508840   -5.8383940781    5.9521387923
H       -1.4292874325   -3.0960941658    2.3724953190
H        2.2957322378   -0.6634324472    5.0972015320
H        0.1808026139    0.1945670517    5.8112647430
29   

C        2.1161062694   -3.0153567021    0.8198352974
C        1.1033193831   -2.0568118032    0.8995764968
C        2.9009590343   -3.2902344072    1.9426818625
C        0.8670958530   -1.3854717848    2.1038766522
C        2.6701565518   -2.6110315693    3.1446434972
C       -0.3018155735   -3.9310175158    5.4572462751
C        0.1436227997   -5.2193349193    5.1496398076
C       -1.0423105279   -3.6689765675    3.1778747576
C        1.6397857365   -1.6628277964    3.2464335943
C       -0.8780747392   -3.1332335306    4.4638825918
C        0.0150747832   -5.7382853695    3.8549647830
C       -0.5936325817   -4.9552334311    2.8582119714
C        1.3773105948   -0.9788394459    4.5233383938
C        0.1853130969   -0.5072739618    4.9364785143
O       -2.1740606447   -0.8646297791    3.7029860785
O       -2.0699886956   -1.3213786310    6.1037088160
S       -1.3724491886   -1.4097516955    4.8113919302
Cl       0.6150856045   -7.3443063433    3.5035609573
Cl      -0.7830385386   -5.5513193806    1.2231335167
H        2.2928516976   -3.5427746010   -0.1110322544
H        0.4975343724   -1.8329734415    0.0285084135
H        3.6870330532   -4.0344344660    1.8824896232
H        0.0782021104   -0.6408573284    2.1445071246
H        3.2838070230   -2.8426435031    4.0077954895
H       -0.1881887922   -3.5440401658    6.4663044082
H        0.6023102375   -5.8282848032    5.9194934424
H       -1.5047621918   -3.0691195870    2.3989745847
H        2.2312634949   -0.8104946784    5.1714585635
H        0.1452950561    0.3166369890    5.6324374621
29   

C        2.2299814992   -3.0926129311    0.8621539643
C        1.1713804441   -2.1824088116    0.9031036057
C        3.0061143018   -3.3057660380    2.0043237446
C        0.8821930948   -1.4969264080    2.0877073723
C        2.7207167745   -2.6136093273    3.1870645463
C       -0.2768450596   -3.9361143298    5.4179720050
C        0.1673196621   -5.2039539069    5.0344386747
C       -1.1745009811   -3.6056542657    3.2046115868
C        1.6462131362   -1.7119363057    3.2490636939
C       -0.9300210725   -3.1133438175    4.4948170188
C       -0.0384077036   -5.6776108026    3.7325731942
C       -0.7265633739   -4.8711337570    2.8084682413
C        1.3243839411   -1.0170007913    4.5043598840
C        0.1282838398   -0.4729685229    4.8271813230
O       -2.3831590555   -0.8720856736    3.9703936292
O       -1.9014767974   -1.3491496096    6.3227339591
S       -1.4112127850   -1.4088173065    4.9367836589
Cl       0.5665262865   -7.2567457435    3.2819318092
Cl      -1.0131466672   -5.4111698541    1.1681885142
H        2.4487191514   -3.6303994186   -0.0537333629
H        0.5713040805   -2.0080758830    0.0169629181
H        3.8280268787   -4.0121007759    1.9739909775
H        0.0572837053   -0.7917109087    2.1000949519
H        3.3286740451   -2.7977650890    4.0655271489
H       -0.1008010617   -3.5826313944    6.4305111454
H        0.6869076138   -5.8310026964    5.7490995985
H       -1.6977998937   -2.9861499557    2.4816388385
H        2.1426769828   -0.8647463022    5.2006823354
H        0.0936879269    0.4577273890    5.3724284240
29   

C        2.6855748920   -3.3382283895    1.2094187525
C        1.4202539973   -2.7517671121    1.1363238063
C        3.4945761726   -3.1035163041    2.3240208191
C        0.9629862316   -1.9394098461    2.1793525456
C        3.0337432916   -2.2930104657    3.3681391301
C       -0.1431502898   -3.9483230842    4.9895722331
C        0.1564663818   -5.1469474681    4.3405768570
C       -1.7476615892   -3.4329878882    3.2637156106
C        1.7560300269   -1.7111318615    3.3170730880
C       -1.0796219801   -3.0658113847    4.4402817513
C       -0.4786133163   -5.4953878234    3.1431110689
C       -1.4509190611   -4.6326710315    2.6034409964
C        1.2673555624   -0.8976570741    4.4350585254
C        0.0007845896   -0.4420834512    4.6481393599
O       -2.6472496008   -0.8566555530    4.7472146692
O       -1.3145263952   -1.5558799546    6.6822917050
S       -1.3825302856   -1.4441575034    5.2166551981
Cl      -0.0465639757   -6.9899748780    2.3418520402
Cl      -2.2780733789   -5.0218405929    1.1112075903
H        3.0388098052   -3.9703221323    0.4021809322
H        0.7902695067   -2.9266603789    0.2712969544
H        4.4795873923   -3.5530649286    2.3807155725
H       -0.0181105811   -1.4854052325    2.0999423647
H        3.6736463776   -2.1290394064    4.2280119421
H        0.3689919254   -3.6908251428    5.9129659707
H        0.8996545333   -5.8139553371    4.7609738823
H       -2.4951353602   -2.7685801876    2.8386353307
H        2.0228126316   -0.5346797438    5.1246516027
H       -0.1610913521    0.6134330429    4.8037447559
29   

C        3.0109947361   -3.2105205121    1.1639508545
C        1.6667040322   -2.8344072380    1.1117003083
C        3.7889079089   -2.8503784789    2.2671637554
C        1.1027647528   -2.1000888702    2.1605225818
C        3.2208412397   -2.1226295899    3.3191613619
C       -0.2850542550   -3.9989211063    4.9700606315
C       -0.1025889788   -5.2151159722    4.3107025796
C       -1.9626117516   -3.3877780892    3.3479337078
C        1.8688635228   -1.7415967136    3.2828036226
C       -1.2026322383   -3.0632151739    4.4800592455
C       -0.8362847103   -5.5272977969    3.1606041681
C       -1.7843548913   -4.6055869839    2.6778372156
C        1.2769913305   -1.0028857039    4.3975854594
C       -0.0020855130   -0.5246148487    4.5430945662
O       -2.6422187308   -0.7897621628    4.9300370993
O       -1.1419355826   -1.5465233638    6.7284054582
S       -1.3654795570   -1.4326158144    5.2783610517
Cl      -0.5569399069   -7.0519366160    2.3480249930
Cl      -2.7319995475   -4.9482200465    1.2470555295
H        3.4490069578   -3.7778208943    0.3501419991
H        1.0586395387   -3.1110415555    0.2576113055
H        4.8339798868   -3.1363544203    2.3084213674
H        0.0599861336   -1.8121292659    2.0979649895
H        3.8406433845   -1.8563819713    4.1682047774
H        0.3001351928   -3.7726443078    5.8577757651
H        0.6231441149   -5.9262471583    4.6874391769
H       -2.6947915699   -2.6797034810    2.9689836082
H        1.9584579302   -0.7303730236    5.1972274557
H       -0.2149981159    0.5132179366    4.3396219391
29   

C        3.4358351909   -2.9936779739    1.0960040512
C        2.0434887648   -2.8812051840    1.0620423803
C        4.1448673038   -2.4989700854    2.1936892417
C        1.3632996339   -2.2676757547    2.1199245619
C        3.4618782875   -1.8980330022    3.2572603532
C       -0.4879986907   -4.1043135322    4.9881084162
C       -0.4708552539   -5.3497729685    4.3583589944
C       -2.1806713982   -3.3613991492    3.4380993584
C        2.0632571542   -1.7704198418    3.2319095748
C       -1.3332579190   -3.0918357670    4.5216349976
C       -1.2988713919   -5.6133220190    3.2610237446
C       -2.1690375733   -4.6081740995    2.7985883889
C        1.3546585436   -1.1353721192    4.3402092845
C        0.0527815110   -0.6746322947    4.4313703258
O       -2.5579821520   -0.7127289987    5.0272273863
O       -0.9801901027   -1.5571536990    6.7285124976
S       -1.3104751745   -1.4436780373    5.2988724073
Cl      -1.2342855843   -7.1831596544    2.4898734708
Cl      -3.2301459333   -4.8867703590    1.4348823852
H        3.9641810722   -3.4619968587    0.2728904572
H        1.4888600112   -3.2689803960    0.2148817191
H        5.2259096438   -2.5783017617    2.2200772323
H        0.2828869144   -2.1896215186    2.0773456775
H        4.0291457188   -1.5164572082    4.0991122562
H        0.1630600053   -3.9200400034    5.8391163463
H        0.1944938331   -6.1250527744    4.7201039239
H       -2.8583265853   -2.5915011432    3.0785067719
H        1.9280960972   -1.0326522104    5.2561493168
H       -0.2606181307    0.1166277244    3.7691933011
