35

C     -5.48957   -1.10056    1.49708
C     -6.00000   -1.90893    0.47472
C     -4.39103   -0.26671    1.26160
C     -4.32624   -1.04969   -1.02302
C     -5.42172   -1.89245   -0.80127
C     -3.79590   -0.23959   -0.00891
C      0.43285   -1.54632   -0.69673
C     -1.00160    0.31548    1.63264
C      0.98545   -2.61530   -1.27830
C     -5.97305   -2.77960   -1.94724
C      1.12521   -0.21647   -0.46519
C     -1.00868   -1.43917   -0.22263
C      0.16437    1.97670    0.50954
C     -0.02077    0.81544   -0.46529
C     -1.21640    0.04400    0.14067
C     -2.59240    0.62830   -0.30356
O     -5.35826   -2.67919   -3.04601
O     -1.37934   -0.32076    2.58645
O     -6.96626   -3.49538   -1.64448
O     -0.26443    1.46887    1.79516
H     -5.94500   -1.11734    2.48642
H     -6.85178   -2.56555    0.63033
H     -3.99018    0.34598    2.06591
H     -3.90757   -1.04901   -2.02766
H      0.42174   -3.53344   -1.42842
H      2.01704   -2.60517   -1.62547
H      1.60765   -0.22183    0.52273
H      1.90154   -0.00126   -1.20581
H     -1.70225   -1.74417   -1.01014
H     -1.21985   -2.07905    0.63895
H      1.20265    2.30323    0.61883
H     -0.45765    2.84057    0.25154
H     -0.23298    1.16326   -1.48051
H     -2.52616    0.77422   -1.38743
H     -2.71638    1.62430    0.14090
