52

C     -8.34465    1.28502    4.94230
C     -1.83153   -5.83656    3.17381
C     -6.95524    1.17004    5.00271
C     -9.06012    0.50635    4.02428
C     -0.52399   -5.33870    3.26032
C     -2.60029   -5.55404    2.04471
C     -6.27848    0.27464    4.16552
C     -8.39023   -0.37244    3.17389
C      0.02185   -4.59127    2.21559
C     -2.07817   -4.78317    0.98712
C     -6.99403   -0.50135    3.24398
C     -0.74351   -4.33118    1.07585
C     -2.20265   -3.82914   -1.24405
C     -2.84954   -4.33405   -0.17838
C     -4.92597   -1.24294    2.13284
C     -6.66549   -2.82842    2.59463
C     -4.48322   -2.02691    0.90437
C     -6.27773   -3.67453    1.38874
C     -0.69015   -3.80273   -1.27731
C     -0.17222   -2.61249   -2.08065
C     -0.12730   -5.12927   -1.80313
C     -4.34774   -4.34321   -0.09560
N     -6.35237   -1.42354    2.34796
N     -4.81361   -3.49086    1.07773
O     -0.19585   -3.57729    0.08293
H     -8.86600    1.97773    5.59623
H     -2.23857   -6.44899    3.97239
H     -6.38920    1.77046    5.70941
H    -10.14043    0.59898    3.95627
H      0.07987   -5.55120    4.13770
H     -3.59632   -5.98875    1.96716
H     -5.19940    0.19204    4.24824
H     -8.94651   -0.94253    2.43397
H      1.03927   -4.21481    2.26018
H     -2.74109   -3.44332   -2.10695
H     -4.31410   -1.55296    3.00081
H     -4.71522   -0.18744    1.94637
H     -7.73695   -2.94779    2.76008
H     -6.15527   -3.21041    3.49936
H     -5.01379   -1.69054    0.01121
H     -3.40742   -1.95338    0.74360
H     -6.44289   -4.73808    1.57513
H     -6.83141   -3.36784    0.49906
H      0.91849   -2.57606   -2.03018
H     -0.56893   -1.67317   -1.68526
H     -0.46743   -2.70730   -3.12948
H      0.96594   -5.09689   -1.79664
H     -0.46514   -5.30288   -2.82925
H     -0.45911   -5.96998   -1.18772
H     -4.75130   -5.34412    0.08062
H     -4.81138   -3.93392   -0.99406
H     -4.27604   -3.82022    1.89287
