50

C      0.41591    2.42885   -1.26808
C     -0.34984    2.23489    1.72426
C     -0.55160    0.15673   -0.61766
C     -0.25336   -1.19123    0.02664
C      2.06963   -0.89940   -0.03057
C      1.95451    0.51903   -0.61295
C      0.57769    1.17721   -0.36600
C      1.51316    4.02235   -3.57958
C      0.36017    2.21231   -4.90355
C     -1.02466    3.81092   -3.53182
C     -1.86106    2.94738    4.29340
C      0.35018    4.07184    4.77097
C     -1.05658    4.87989    2.83864
C      0.31254    3.07672   -3.64429
C     -0.65863    3.67662    3.69397
N      0.69684    1.60459    1.02979
O      0.31991    3.55424   -0.83044
O     -1.49735    2.24703    1.32318
O      2.75799    1.11915    2.54091
O      2.63335    3.39996    1.47694
O      0.98818   -1.71485   -0.45261
O      2.91904    1.40099    0.01736
O      0.41871    2.06540   -2.55774
O      0.13118    2.72992    2.86395
S      2.34398    1.98227    1.44947
H     -0.62116    0.01925   -1.69937
H     -1.49593    0.56716   -0.25897
H     -0.22850   -1.11204    1.12273
H     -1.01929   -1.91896   -0.25047
H      2.98857   -1.36282   -0.39565
H      2.11734   -0.85350    1.06416
H      2.18979    0.52965   -1.67578
H      1.48904    4.64217   -2.68303
H      2.44875    3.45458   -3.59291
H      1.50094    4.67668   -4.45709
H     -0.47370    1.50438   -4.91933
H      1.29606    1.64778   -4.95084
H      0.29352    2.84614   -5.79241
H     -1.85181    3.09496   -3.49845
H     -1.06369    4.43926   -2.64178
H     -1.15985    4.44501   -4.41386
H     -2.57198    2.65190    3.52080
H     -1.53378    2.05612    4.83756
H     -2.36766    3.61189    5.00084
H      1.22792    4.54035    4.31828
H      0.67863    3.19221    5.33161
H     -0.11016    4.77933    5.46681
H     -0.17477    5.30524    2.35141
H     -1.78450    4.60613    2.07365
H     -1.49977    5.64501    3.48388
