45

C      1.34771    4.57888    1.81084
C      3.20764    3.14264    2.40039
C      1.54998    5.31464    2.98348
C      3.41853    3.87606    3.56745
C     -0.68413    0.53080   -3.64597
C     -1.92516    1.79877   -2.51649
C      2.16442    3.47712    1.52526
C      2.57366    4.94643    3.84613
C     -0.73805    2.31185    2.51757
C      1.16208    0.56981    2.74467
C     -0.13012   -0.17379    2.66452
C      0.02511    1.16934    1.93004
C     -0.60673    3.68804    5.87980
C     -1.27046    0.94090   -0.21219
C     -1.22242    3.53685    4.50181
C      0.77000    2.43966   -0.16684
C      0.13870    1.14287    0.39670
N     -1.59192    1.53761   -3.77617
N     -0.44549    0.15646   -2.39135
N     -1.25740    0.98411   -1.67034
O     -1.48259    3.05249    1.88558
O      0.96313    0.02600    0.07341
O      2.05655    2.70448    0.39252
O     -0.53728    2.43990    3.84252
F      2.75400    5.65080    4.99934
H      0.54532    4.86998    1.14384
H      3.83628    2.29236    2.15563
H      0.92289    6.16825    3.22252
H      4.21564    3.62026    4.25879
H     -0.18769    0.05919   -4.48415
H     -2.62966    2.54782   -2.17802
H      1.41340    1.07961    3.66564
H      1.98923    0.19069    2.15831
H     -0.16672   -1.05175    2.02922
H     -0.78178   -0.17922    3.53175
H     -0.71596    2.76911    6.46344
H      0.45662    3.93033    5.80271
H     -1.10697    4.49958    6.41816
H     -1.64496   -0.03431    0.10917
H     -1.94814    1.71994    0.13255
H     -1.09822    4.43661    3.89690
H     -2.28996    3.29944    4.54633
H      0.94644    2.30393   -1.23596
H      0.08599    3.27961   -0.03592
H      0.82103   -0.18127   -0.87313
