14   
Generated by ForceBalance from scan.xyz: Frame 1 of 24
C       -1.6665292784   -0.0884774101    0.0783797075
C        0.4076507823   -0.7134711401    0.1434816868
C        1.7730573129   -1.3318565289    0.0555675803
C        0.2773311457    0.8242679608    0.1942988081
N        1.6039201885    1.9740431297   -1.6882513857
N       -1.1344890657    1.0872026292    0.0347813013
N       -0.7666427287   -1.2155001270    0.1391538762
N        1.0489970129    1.4766694927   -0.8675979049
N        1.8227321580   -2.6275193672   -0.2958711529
O        2.7192768068   -0.5528520191    0.1872089793
H       -2.7397916974   -0.2559843307    0.0614671789
H        0.6836360191    1.2404173204    1.1267715854
H        2.7296491470   -3.0824649310   -0.3527500497
H        0.9877877179   -3.2046473918   -0.3027465221
14   
Generated by ForceBalance from scan.xyz: Frame 2 of 24
C       -1.6969746833   -0.1202682423    0.1249749119
C        0.3844786400   -0.7221975334    0.2211090475
C        1.7549254493   -1.3379939925    0.1760723541
C        0.2360204193    0.8170008366    0.1814011877
N        1.5744042777    1.8452655572   -1.7620108753
N       -1.1772080908    1.0559774978    0.0081413088
N       -0.7860018278   -1.2325597405    0.2472354897
N        1.0028470105    1.4099153488   -0.9177837128
N        1.8391590504   -2.5547442420   -0.3971478306
O        2.6858200884   -0.6034686247    0.5042331838
H       -2.7686446658   -0.2985519900    0.1223014673
H        0.6414547807    1.2900284473    1.0870330227
H        2.7483678573   -3.0094951164   -0.4172705216
H        1.0143892234   -3.1363774415   -0.5083798041
14   
Generated by ForceBalance from scan.xyz: Frame 3 of 24
C       -1.7062121029   -0.1222218685    0.1795676317
C        0.3690076636   -0.7524051844    0.2530198917
C        1.7269031564   -1.4014634872    0.2965033448
C        0.2382949966    0.7905043621    0.1545090687
N        1.5113819905    1.7127179425   -1.8859510345
N       -1.1752149668    1.0424689055    0.0089790224
N       -0.8091560257   -1.2408549498    0.3258982434
N        0.9673946016    1.3267834307   -1.0001802389
N        1.8911293754   -2.4848975083   -0.4952976491
O        2.5983478977   -0.7851645375    0.9013422416
H       -2.7800037623   -0.2851554615    0.2067420243
H        0.6833720710    1.2927103111    1.0250182250
H        2.7857241816   -2.9669466080   -0.4425853492
H        1.0879536901   -3.0338312734   -0.7868459498
14   
Generated by ForceBalance from scan.xyz: Frame 4 of 24
C       -1.7110578243   -0.0612589160    0.2288699151
C        0.3474558878   -0.7520451430    0.2677182009
C        1.6803901280   -1.4461387210    0.3928176440
C        0.2566422194    0.7940776668    0.1112689789
N        1.4424580198    1.5918771148   -2.0346255722
N       -1.1533184957    1.0817424328    0.0043881209
N       -0.8434025619   -1.1982622498    0.3922299083
N        0.9408073626    1.2603587841   -1.1026548252
N        1.9729381869   -2.3616467768   -0.5622428206
O        2.4375783264   -0.9874761173    1.2375522979
H       -2.7878728307   -0.1916511768    0.2907258591
H        0.7528097614    1.3191453957    0.9392994940
H        2.8477470915   -2.8709529688   -0.4520255546
H        1.2233382333   -2.8529620515   -1.0402878337
14   
Generated by ForceBalance from scan.xyz: Frame 5 of 24
C       -1.7218609516   -0.0278816800    0.2736328493
C        0.3180538823   -0.7738718897    0.2958949870
C        1.6277624011   -1.5074585558    0.4643432764
C        0.2640426328    0.7698119380    0.0774664115
N        1.3903547867    1.4418252511   -2.1428711776
N       -1.1404797833    1.0916928971   -0.0043512426
N       -0.8819718604   -1.1798084772    0.4627750392
N        0.9182202097    1.1646561553   -1.1780461590
N        2.0526648457   -2.2348355626   -0.6018773895
O        2.2657944332   -1.2211078210    1.4648613366
H       -2.8001381799   -0.1266494396    0.3627465842
H        0.7956248163    1.3191175346    0.8666799680
H        2.9157892258   -2.7596002160   -0.4687465265
H        1.3681634475   -2.6658621038   -1.2169984547
14   
Generated by ForceBalance from scan.xyz: Frame 6 of 24
C       -1.7204681736    0.0079840003    0.3215955317
C        0.2996597480   -0.7920059971    0.3356095833
C        1.5871909244   -1.5656348305    0.5192980856
C        0.2807000240    0.7442573086    0.0490003350
N        1.3660657687    1.2944329145   -2.2231056082
N       -1.1169485045    1.0997210097   -0.0147545554
N       -0.9068242454   -1.1553727397    0.5448630128
N        0.9133242059    1.0692284286   -1.2355010385
N        2.1277107170   -2.0930091785   -0.6171458446
O        2.1203337938   -1.4720161748    1.6099986330
H       -2.7988437441   -0.0586618740    0.4357644217
H        0.8410590645    1.3156437574    0.8019486667
H        2.9843584098   -2.6290306120   -0.4829274541
H        1.5046917962   -2.4597930974   -1.3320919756
14   
Generated by ForceBalance from scan.xyz: Frame 7 of 24
C       -1.7199733031    0.0529167739    0.3683945168
C        0.2774416643   -0.8051179342    0.3704896714
C        1.5384658250   -1.6240434986    0.5644918811
C        0.2934019919    0.7187467279    0.0131790579
N        1.3324499744    1.1657137367   -2.3001829582
N       -1.0955590749    1.1114660667   -0.0304522578
N       -0.9326479878   -1.1198731176    0.6284244639
N        0.9014524374    0.9821518135   -1.2942204658
N        2.1992214636   -1.9494307370   -0.5922723189
O        1.9577355032   -1.7402224515    1.6985569120
H       -2.7966054948    0.0215784304    0.5106037128
H        0.8841429731    1.3053405013    0.7307584319
H        3.0452945808   -2.5013791388   -0.4521048359
H        1.6460643528   -2.2458713849   -1.3930570502
14   
Generated by ForceBalance from scan.xyz: Frame 8 of 24
C       -1.7174001800    0.1129762203    0.3977148597
C        0.2545751482   -0.8047040013    0.3858589030
C        1.4831073331   -1.6721015969    0.5933588622
C        0.3027634664    0.7012822517   -0.0464225339
N        1.2787933952    1.0492255115   -2.4012799222
N       -1.0757195730    1.1327927994   -0.0689856675
N       -0.9554550720   -1.0659250518    0.6963509994
N        0.8784375401    0.9056476204   -1.3761157449
N        2.2774708666   -1.8110286572   -0.5236492329
O        1.7688658553   -1.9987879277    1.7255079971
H       -2.7898966523    0.1198232997    0.5708876307
H        0.9267958934    1.2996485730    0.6325070009
H        3.1064020251   -2.3836995827   -0.3638571786
H        1.8169068453   -2.0245899579   -1.4057391104
14   
Generated by ForceBalance from scan.xyz: Frame 9 of 24
C       -1.7052189064    0.1484840446    0.4589899632
C        0.2390099571   -0.8274062185    0.3870258388
C        1.4329334211   -1.7487110592    0.5755436052
C        0.3093620072    0.6659019749   -0.0871899648
N        1.1768086204    0.9662161561   -2.4893381553
N       -1.0565154645    1.1377764826   -0.0609317099
N       -0.9632226389   -1.0412418128    0.7584729555
N        0.8276693835    0.8394632625   -1.4432549815
N        2.3557810668   -1.7023535717   -0.4539749633
O        1.5854743430   -2.2920509577    1.6467950510
H       -2.7686330663    0.1902239388    0.6773722621
H        0.9779451580    1.2590218449    0.5528904321
H        3.1633583881   -2.3023315809   -0.2841390501
H        2.0013033706   -1.8062378750   -1.4023713591
14   
Generated by ForceBalance from scan.xyz: Frame 10 of 24
C       -1.6890085639    0.1974286096    0.5149322801
C        0.2232454515   -0.8375290676    0.3737468881
C        1.3764366113   -1.8157945417    0.5457294184
C        0.3118612943    0.6465596772   -0.1325364808
N        1.0362952515    0.8853997790   -2.5888262783
N       -1.0372141726    1.1596161307   -0.0502656395
N       -0.9671919638   -1.0049713386    0.8035267413
N        0.7539432321    0.7875319167   -1.5194295291
N        2.4332023924   -1.6226293154   -0.3283450838
O        1.3782638595   -2.5514242173    1.5064557812
H       -2.7400443370    0.2729100200    0.7794216124
H        1.0309839231    1.2292720220    0.4600757656
H        3.2050855503   -2.2655776929   -0.1510547547
H        2.2225101783   -1.5586522342   -1.3210753519
14   
Generated by ForceBalance from scan.xyz: Frame 11 of 24
C       -1.7015518580   -0.1781560097   -0.1848722660
C        0.3485540042   -0.7484078713    0.2830202006
C        1.6090552851   -1.5423752629    0.5939521648
C        0.1247883611    0.8000940600    0.3898817965
N        1.5969193091    2.0302151782   -1.3384157995
N       -1.2450602241    1.0195967061   -0.0189138338
N       -0.7870929908   -1.2636279497    0.0060494033
N        0.9840652487    1.5279557612   -0.5614966811
N        2.7542834529   -0.7673156778    0.7026709921
O        1.5758335530   -2.7501081247    0.5625092983
H       -2.7347155194   -0.3836024182   -0.4511679333
H        0.3462563652    1.2206600738    1.3789708982
H        3.5885260509   -1.3274646297    0.8771806971
H        2.7294082233    0.0602641902    1.2928088491
14   
Generated by ForceBalance from scan.xyz: Frame 12 of 24
C       -1.7102193433   -0.1691746642   -0.1321227755
C        0.3455043941   -0.7562158356    0.2806253148
C        1.6294302241   -1.5332064724    0.5137434681
C        0.1503806891    0.7957634342    0.3433430871
N        1.6200685379    1.9440980510   -1.4418901229
N       -1.2262677677    1.0251271296   -0.0318971121
N       -0.8053831418   -1.2645451510    0.0605657311
N        1.0078452777    1.4761790674   -0.6437119005
N        2.7221039350   -0.7306094263    0.8123324212
O        1.6680330089   -2.7168974313    0.2698356128
H       -2.7563368978   -0.3658087040   -0.3500917502
H        0.4020180318    1.2429825059    1.3132051405
H        3.5788868643   -1.2701517866    0.9352985189
H        2.6169336628   -0.0256063829    1.5380504528
14   
Generated by ForceBalance from scan.xyz: Frame 13 of 24
C       -1.7234871178   -0.1592015881   -0.0625691053
C        0.3426580357   -0.7366986184    0.2981037189
C        1.6517761835   -1.4883338979    0.4544104601
C        0.1542394689    0.8166830181    0.3084826950
N        1.6011840365    1.8873925179   -1.5399483620
N       -1.2323400315    1.0360308217   -0.0328854771
N       -0.8148561880   -1.2512156375    0.1377183830
N        0.9937414195    1.4547205696   -0.7186298274
N        2.6887786218   -0.7091008631    0.9405229988
O        1.7550343804   -2.6084660371    0.0075839478
H       -2.7775613512   -0.3600122261   -0.2329930029
H        0.4337255186    1.2966615911    1.2545875956
H        3.5633231443   -1.2257169103    1.0305367685
H        2.5094603330   -0.1164548764    1.7475509921
14   
Generated by ForceBalance from scan.xyz: Frame 14 of 24
C       -1.7136525326   -0.1479391140   -0.0116025232
C        0.3658459686   -0.7068239256    0.2950943158
C        1.6941680767   -1.4335579347    0.3945407396
C        0.1715100070    0.8460139922    0.2580722620
N        1.5642555412    1.8479615023   -1.6688048348
N       -1.2258195813    1.0485613891   -0.0436250873
N       -0.7939038639   -1.2306220266    0.1930873473
N        0.9772735477    1.4484591357   -0.8163385133
N        2.6691108802   -0.7380782834    1.0790351526
O        1.8601772147   -2.4461455538   -0.2508445615
H       -2.7724923647   -0.3571891303   -0.1359662092
H        0.4848654590    1.3570893022    1.1766231915
H        3.5529602764   -1.2407940891    1.1512197850
H        2.4149141041   -0.2576229114    1.9384222520
14   
Generated by ForceBalance from scan.xyz: Frame 15 of 24
C       -1.7137833346   -0.1498250638    0.0493926245
C        0.3815438403   -0.6771151668    0.2972371969
C        1.7274310793   -1.3741258488    0.3559239051
C        0.1693303269    0.8719650175    0.2097125435
N        1.4711434719    1.8068144133   -1.8129863264
N       -1.2402964246    1.0491094471   -0.0441844538
N       -0.7753717732   -1.2156328023    0.2598099153
N        0.9232668967    1.4385513758   -0.9212502349
N        2.6324487356   -0.8119915624    1.2206433041
O        1.9601542390   -2.2345130080   -0.4693761889
H       -2.7741739569   -0.3734076804   -0.0274983918
H        0.5202123024    1.4173142857    1.0942392598
H        3.5251722820   -1.3008654366    1.2711877511
H        2.3082499282   -0.4537562650    2.1149929426
14   
Generated by ForceBalance from scan.xyz: Frame 16 of 24
C       -1.6691792539   -0.1498609102    0.0917080833
C        0.4404894801   -0.6331122577    0.2944091480
C        1.8085438749   -1.2822926151    0.3324212919
C        0.2002034656    0.9080628477    0.1638755492
N        1.4127747461    1.7721613845   -1.9464081361
N       -1.2196264217    1.0534391681   -0.0490358269
N       -0.7066913985   -1.1935024879    0.3106060071
N        0.9032460141    1.4388918272   -1.0189255192
N        2.6231474973   -0.8926953201    1.3556022831
O        2.1330654590   -1.9307209644   -0.6464288011
H       -2.7272879592   -0.3930734270    0.0522721094
H        0.5785528072    1.4885753773    1.0138439383
H        3.5334278930   -1.3495543668    1.3837060798
H        2.2219810489   -0.6868900873    2.2663665900
14   
Generated by ForceBalance from scan.xyz: Frame 17 of 24
C       -1.6562376801   -0.1422348294    0.1360548516
C        0.4597158670   -0.5986504840    0.3087769703
C        1.8439117054   -1.2027690333    0.3335417871
C        0.2068037792    0.9306732103    0.1116478431
N        1.3553087751    1.6826153490   -2.0772196322
N       -1.2198052571    1.0564558580   -0.0684596232
N       -0.6806201230   -1.1689262591    0.3822689292
N        0.8729244683    1.3987404800   -1.1195203841
N        2.5802614216   -1.0076679452    1.4574601454
O        2.2478347056   -1.6166512663   -0.7431638331
H       -2.7131024913   -0.3938196619    0.1328001697
H        0.6077624568    1.5543329751    0.9197100917
H        3.5085191929   -1.4273317281    1.4610636132
H        2.1207358625   -0.9525274320    2.3619249176
14   
Generated by ForceBalance from scan.xyz: Frame 18 of 24
C       -1.6378809692   -0.1465933640    0.1831373169
C        0.4856122177   -0.5627934452    0.3410906135
C        1.8849345913   -1.1207718136    0.3602427515
C        0.2110497949    0.9472073669    0.0661652440
N        1.3084082039    1.6072058220   -2.1779263016
N       -1.2216031624    1.0449592072   -0.0910943968
N       -0.6433241990   -1.1466642325    0.4675600535
N        0.8489711656    1.3570410995   -1.2001438497
N        2.5459333391   -1.1279410189    1.5393450526
O        2.3588848222   -1.3125129346   -0.7540079187
H       -2.6910157652   -0.4117732457    0.2120442561
H        0.6167475489    1.6187641378    0.8327097310
H        3.4879463363   -1.5149147867    1.5338769290
H        2.0344420377   -1.2005912371    2.4137766540
14   
Generated by ForceBalance from scan.xyz: Frame 19 of 24
C       -1.6188548070   -0.1335348155    0.2200807772
C        0.5117357388   -0.5169950385    0.3501013812
C        1.9224868327   -1.0388321313    0.3794549617
C        0.2160623447    0.9676361074   -0.0085262956
N        1.2446652676    1.5511598975   -2.3056942838
N       -1.2218902515    1.0427647313   -0.1345132902
N       -0.6055409083   -1.1061802711    0.5397794105
N        0.8202297635    1.3198867092   -1.3080502686
N        2.4964020544   -1.2534288673    1.5800398381
O        2.4721221860   -1.0357238144   -0.7193040306
H       -2.6680036567   -0.4065871047    0.2904762251
H        0.6294569570    1.6854206803    0.7109992538
H        3.4431358396   -1.6277998033    1.5845278200
H        1.9258362903   -1.4384086780    2.3993251635
14   
Generated by ForceBalance from scan.xyz: Frame 20 of 24
C       -1.5978402834   -0.1371063158    0.2765333955
C        0.5419548465   -0.4705212327    0.3761538444
C        1.9677113205   -0.9442189985    0.4209996901
C        0.2114892658    0.9814541624   -0.0582800305
N        1.1661218697    1.5116353075   -2.3983117896
N       -1.2312903771    1.0229357865   -0.1549656426
N       -0.5568133694   -1.0717434322    0.6264625772
N        0.7834902797    1.2890936720   -1.3821092459
N        2.4545427461   -1.3685678446    1.6010429526
O        2.5946632647   -0.7472972664   -0.6192742209
H       -2.6394414233   -0.4249550289    0.3880597607
H        0.6218514452    1.7414342298    0.6189254404
H        3.4086671390   -1.7217430827    1.6205918675
H        1.8311635881   -1.6618126762    2.3465323863
14   
Generated by ForceBalance from scan.xyz: Frame 21 of 24
C       -1.6807412052   -0.0537678334   -0.0219827164
C        0.3696438190   -0.7438078203   -0.1461933379
C        1.7067045497   -1.3940819814   -0.3581411197
C        0.2963067926    0.7348939343    0.3039455367
N        1.5271060829    2.3199322725   -1.3184479457
N       -1.1104363465    1.0696533471    0.2579027561
N       -0.8218082297   -1.1887495100   -0.2616908749
N        1.0314788253    1.6229698779   -0.6133382203
N        1.8863852030   -2.6263303012    0.1450787747
O        2.5504116794   -0.6671788420   -0.8852271985
H       -2.7590405054   -0.1731042321   -0.0786639338
H        0.7471125466    0.9043322133    1.2904409990
H        2.7724588731   -3.0934853384   -0.0308744140
H        1.0970811361   -3.1938304212    0.4365135987
14   
Generated by ForceBalance from scan.xyz: Frame 22 of 24
C       -1.6702375233   -0.0662566805    0.0032912322
C        0.3901938733   -0.7301349238   -0.0835396648
C        1.7393819386   -1.3651612835   -0.2542185729
C        0.2961868070    0.7704192003    0.2705846787
N        1.5187624327    2.2761549622   -1.4283532566
N       -1.1152415753    1.0817374056    0.2027681325
N       -0.7937286746   -1.2013282484   -0.1667524676
N        1.0290081349    1.6104919107   -0.6895950126
N        1.8506531664   -2.6666299661    0.0501410765
O        2.6352991845   -0.5926899983   -0.6032215678
H       -2.7467254718   -0.2057734928   -0.0402977652
H        0.7393093978    1.0027797468    1.2479321577
H        2.7433292562   -3.1292172798   -0.0991471689
H        1.0328967074   -3.2369567274    0.2389853080
14   
Generated by ForceBalance from scan.xyz: Frame 23 of 24
C       -1.6683526953   -0.0753086288    0.0389850781
C        0.3984774884   -0.7219934193   -0.0024243345
C        1.7559785486   -1.3451779884   -0.1433545785
C        0.2885924185    0.7959980554    0.2512724117
N        1.5294648364    2.2005792736   -1.5165015240
N       -1.1246357423    1.0895533710    0.1553178575
N       -0.7802246120   -1.2104220175   -0.0551126045
N        1.0305423196    1.5790496633   -0.7460418892
N        1.8288888149   -2.6803349572   -0.0529481647
O        2.6802622959   -0.5491021227   -0.3299057167
H       -2.7433638697   -0.2286317589    0.0069550739
H        0.7198838499    1.0898625480    1.2176271169
H        2.7282476694   -3.1360893469   -0.1784204448
H        0.9981003828   -3.2521025087    0.0582091895
14   
Generated by ForceBalance from scan.xyz: Frame 24 of 24
C       -1.6710328816   -0.0924435653    0.0501503900
C        0.4025670370   -0.7196837734    0.0677136265
C        1.7671851627   -1.3332383370   -0.0468988937
C        0.2749303119    0.8107605644    0.2196947955
N        1.5583247424    2.0960318693   -1.6055027399
N       -1.1390754692    1.0831726288    0.0872086606
N       -0.7711363992   -1.2216690238    0.0352883535
N        1.0311895771    1.5332225593   -0.8091532634
N        1.8233543802   -2.6665452237   -0.1770542315
O        2.7054152852   -0.5325495244   -0.0754181685
H       -2.7442523261   -0.2586664749    0.0224648496
H        0.6884023958    1.1688088295    1.1724689033
H        2.7297713340   -3.1165538149   -0.2664184099
H        0.9900360692   -3.2426753422   -0.1199883182
