76

C      9.75172   -5.34579    7.12405
C      9.06052   -6.50235    6.74455
C      9.10571   -4.40252    7.92455
C      7.74459   -6.70424    7.16392
C      7.78516   -4.61123    8.34201
C      3.37556   -5.03449    4.08688
C      2.17479   -4.93595    3.37656
C     -0.89790   -1.03382    2.22126
C     -1.07195   -2.58112    0.38140
C      1.08352   -4.08969    5.39187
C     -0.54458   -2.07921    3.08980
C      7.07530   -5.76390    7.97226
C      3.45426   -4.67456    5.43102
C     -1.16262   -1.26836    0.87199
C      1.04997   -4.47131    4.04028
C     -0.45870   -3.37644    2.58644
C     -0.71936   -3.63821    1.22549
C      2.30028   -4.19734    6.08953
C     -0.22789   -3.70282    6.01016
C     -0.22180   -1.75879    4.53067
C     -1.55042   -0.14199   -0.05879
C     -0.49167   -8.77377   -2.18848
C     -2.23291   -7.01723   -2.69706
C      5.10262   -4.94495    9.37297
C      5.51560   -7.38131    9.09651
C      1.69823   -2.86615    8.04755
C     -0.68973   -6.77219   -0.67330
C      4.69087   -6.04366    7.14054
C     -0.88851   -5.27071   -0.52311
C      4.74686   -4.80965    6.20950
C     -0.83299   -7.27835   -2.11908
C      5.61881   -6.01105    8.38833
O     -0.74039   -4.30831    6.92674
O     -0.18774   -4.46196    3.40437
O     -0.87100   -2.61987    5.49146
O      5.81571   -4.89667    5.26041
O      2.49157   -3.86960    7.40448
O     -0.58565   -4.93629    0.83614
H     10.77526   -5.18359    6.79681
H      9.54440   -7.24536    6.11560
H      9.62591   -3.49683    8.22638
H      7.22688   -7.60226    6.83995
H      7.31243   -3.85621    8.95999
H      4.27753   -5.38469    3.59779
H      2.09329   -5.23382    2.33602
H     -0.97450   -0.02284    2.61537
H     -1.27701   -2.76613   -0.66760
H      0.85960   -1.77150    4.69677
H     -0.58785   -0.75807    4.76798
H     -0.83716   -0.04714   -0.88538
H     -2.53888   -0.31417   -0.49934
H     -1.58148    0.81595    0.46709
H     -1.19505   -9.36205   -1.58686
H      0.51719   -8.97130   -1.80990
H     -0.54387   -9.14343   -3.21836
H     -3.00406   -7.48651   -2.07374
H     -2.32154   -7.43439   -3.70604
H     -2.46252   -5.94884   -2.76405
H      4.07211   -5.17834    9.65527
H      5.09563   -3.93954    8.94406
H      5.70716   -4.92322   10.28579
H      4.48264   -7.56866    9.40926
H      5.81824   -8.20521    8.44436
H      6.15304   -7.40574    9.98665
H      2.31753   -2.48087    8.86026
H      0.77456   -3.28756    8.44693
H      1.46412   -2.04761    7.35723
H      0.31042   -7.01841   -0.29823
H     -1.40517   -7.29108   -0.02355
H      4.91603   -6.91903    6.52072
H      3.66701   -6.16933    7.50303
H     -0.21789   -4.72204   -1.19983
H     -1.92033   -4.97561   -0.74809
H      4.87160   -3.90379    6.81491
H     -0.10329   -6.73852   -2.74001
H      6.63779   -5.04088    5.75675
