24

C      0.47792   -0.44890   -0.63721
C      1.39223    1.71900    0.27937
C     -0.81472   -0.56984    1.47534
C      1.45092    0.20067    0.36695
C     -0.76180   -1.05410    0.02444
C     -2.03130   -0.77199   -0.78434
C     -1.58232    3.81042   -0.07835
C     -0.09337    3.57422    0.09081
O      0.70685   -0.48056   -1.82858
O      2.35385    2.45436    0.33654
O      0.11141    2.13639    0.14807
S      0.93272   -0.37937    2.02970
H     -1.32919    0.39073    1.55234
H     -1.29863   -1.28880    2.13946
H      2.47539   -0.10988    0.16227
H     -0.56816   -2.13584    0.03173
H     -2.23960    0.30230   -0.80483
H     -2.89317   -1.28401   -0.34541
H     -1.90724   -1.11569   -1.81437
H     -1.94864    3.34752   -0.99942
H     -2.14307    3.39922    0.76648
H     -1.78057    4.88560   -0.13110
H      0.29399    4.01458    1.01360
H      0.48613    3.97239   -0.74610
