27

C      0.49312   -0.23513   -0.17646
C      1.28902    1.86127    0.91633
C     -0.71228   -0.48106    1.97764
C      1.49301    0.35857    0.83585
C     -0.75516   -0.82220    0.48506
C     -2.03312   -0.36666   -0.22848
C      3.76267    6.02135    1.56819
C      3.76447    4.49678    1.40538
C      2.35488    3.95609    1.23492
O      0.71195   -0.24497   -1.36955
O      0.19537    2.39666    0.85281
O      2.45078    2.51158    1.08792
S      1.07088   -0.41176    2.44822
H     -1.17452    0.48833    2.17551
H     -1.19149   -1.24195    2.59687
H      2.51815    0.11687    0.55547
H     -0.64370   -1.90921    0.37387
H     -2.15491    0.71640   -0.13472
H     -2.91172   -0.85631    0.20307
H     -1.98077   -0.61757   -1.29111
H      3.32636    6.51605    0.69324
H      3.18580    6.32874    2.44763
H      4.78197    6.39979    1.69023
H      4.22526    4.02308    2.27932
H      4.36394    4.21011    0.53418
H      1.72356    4.17459    2.10142
H      1.86336    4.36370    0.34674
