27

C      0.16096   -0.35123   -0.47595
C      0.67604    1.81986    0.64963
C     -1.15027   -0.67428    1.60568
C      1.03490    0.34657    0.58314
C     -1.07217   -1.03445    0.11868
C     -2.33731   -0.69485   -0.67769
C      1.70726    3.64129    3.78341
C      0.85963    4.20383    2.63720
C      1.47518    3.97929    1.26039
O      0.45831   -0.36619   -1.65180
O     -0.44619    2.24687    0.43491
O      1.73202    2.56603    1.01035
S      0.58793   -0.44212    2.18157
H     -1.70795    0.25222    1.75938
H     -1.59816   -1.46712    2.20797
H      2.09515    0.20620    0.37302
H     -0.86468   -2.10943    0.03207
H     -2.55013    0.37612   -0.61283
H     -3.19828   -1.24799   -0.28944
H     -2.20045   -0.95658   -1.73012
H      1.81402    2.55607    3.69759
H      2.71186    4.08005    3.78803
H      1.24264    3.85714    4.75071
H      0.73207    5.28752    2.75601
H     -0.14378    3.76745    2.65407
H      0.83096    4.36315    0.46651
H      2.46346    4.43841    1.18541
