22

C      1.08153    1.07545    1.58597
C      1.17502    2.42454    1.22680
C     -0.27792    2.01011   -0.68261
C     -0.37961    0.66003   -0.32271
C      0.32222    0.20438    0.81081
C      0.49950    2.87248    0.08924
C     -1.08084   -1.45951   -0.82474
C     -0.01018   -2.02196    0.09794
C      1.28944   -2.30124   -0.66345
N     -1.22227   -0.19746   -1.04765
N     -1.83244   -2.38260   -1.51801
O      0.20639   -1.11582    1.19150
Cl     0.62192    4.56683   -0.37479
H      1.59786    0.69483    2.46242
H      1.76817    3.11344    1.81899
H     -0.82086    2.36444   -1.55259
H     -0.36644   -2.94067    0.57384
H      1.66786   -1.38615   -1.12743
H      1.11653   -3.04122   -1.45048
H      2.04606   -2.68456    0.02698
H     -2.61706   -1.98769   -2.02676
H     -2.02519   -3.26480   -1.06041
