23

C     -1.38879    1.63890    0.44701
C     -0.97469    2.76117   -0.27321
C      0.70515    1.43473   -1.42790
C      0.27076    0.32325   -0.70741
C     -0.75918    0.41696    0.23375
C      0.07055    2.65781   -1.20038
C      0.60438   -1.97782   -0.10744
C     -0.15281   -1.66218    1.17454
C      0.80670   -1.18219    2.26862
N      0.82570   -0.97146   -0.93574
N      1.03877   -3.21266   -0.33702
O     -1.18558   -0.72045    0.88655
Cl     0.59059    4.06325   -2.08353
H     -2.19729    1.70269    1.16832
H     -1.45748    3.71925   -0.11187
H      1.51226    1.35913   -2.15119
H     -0.68068   -2.56211    1.49772
H      1.34737   -0.28312    1.96275
H      1.53307   -1.96133    2.51765
H      0.22243   -0.95311    3.16269
H      1.35053   -1.11374   -1.79621
H      1.57019   -3.47067   -1.16371
H      0.83242   -3.95589    0.32140
