46

C      1.91856    3.41530   -4.17961
C      2.43223    2.27868   -3.54520
C      0.54893    3.68651   -4.10363
C      1.58386    1.42303   -2.83847
C     -0.29654    2.82832   -3.39378
C      0.20854    1.68799   -2.75173
C     -0.75105    2.45791   -0.04024
C     -1.59993    0.08560    0.34883
C     -0.68174   -0.78449    1.21188
C     -0.58535    0.98602   -0.42258
C     -3.42364    4.71663   -1.08145
C      1.61474   -2.70447    1.48793
C      2.91843   -1.14278    0.01968
C      2.15789   -0.36682    2.29156
C     -0.70103    0.78423   -1.95322
C     -2.14015    4.35972   -0.35511
C      1.79992   -1.23676    1.07080
N      0.54023   -0.83031    0.39666
O      0.00236    3.10311    0.65415
O      0.69903    0.58678    0.04306
O     -1.89403    2.94752   -0.57898
H      2.57883    4.08045   -4.73048
H      3.49572    2.05941   -3.60154
H      0.13899    4.56360   -4.59881
H      1.98572    0.54655   -2.34034
H     -1.36098    3.04257   -3.33671
H     -2.16855   -0.51957   -0.36127
H     -2.30787    0.66362    0.94594
H     -0.51961   -0.32143    2.19418
H     -1.07045   -1.79608    1.34611
H     -3.32953    4.53168   -2.15577
H     -4.26595    4.13049   -0.70182
H     -3.64811    5.77800   -0.93427
H      0.86717   -2.81322    2.27985
H      1.30841   -3.31520    0.63272
H      2.56059   -3.09828    1.87183
H      3.09553   -0.10368   -0.26632
H      2.64538   -1.70973   -0.87603
H      3.84992   -1.55349    0.42236
H      2.16798    0.69152    2.02167
H      1.45379   -0.50735    3.11760
H      3.15122   -0.64238    2.66030
H     -1.74235    0.94210   -2.24580
H     -0.45654   -0.26799   -2.13167
H     -2.21267    4.53782    0.72159
H     -1.28238    4.92221   -0.73356
