34

C     -1.53233   -2.42674    2.70420
C     -1.67021   -3.78273    3.03043
C      0.60134   -2.37384    3.79654
C     -0.39810   -1.70103    3.07407
C     -0.66240   -4.44604    3.73763
C      0.48554   -3.71984    4.13017
C     -1.58877   -7.97331    4.15512
C      0.28336   -0.70941    0.22421
C      1.24009   -4.73066    6.14062
C     -0.21911   -0.25418    2.67951
C     -1.81451   -6.55252    3.66702
C      0.77185   -0.05176    1.51485
N      0.92107    1.39796    1.28716
O      1.52810   -4.33172    4.79339
O     -0.69265   -5.77017    4.08647
H     -2.32594   -1.93589    2.14598
H     -2.56356   -4.31194    2.71858
H      1.50309   -1.85493    4.11371
H     -0.66563   -8.38261    3.73503
H     -1.51429   -8.00024    5.24630
H     -2.42442   -8.61097    3.84893
H     -0.67476   -0.27539   -0.08211
H      0.15640   -1.78704    0.35714
H      1.00208   -0.55221   -0.58885
H      2.16692   -5.15098    6.53687
H      0.44999   -5.48644    6.17137
H      0.94628   -3.86156    6.74338
H     -1.17858    0.18704    2.38946
H      0.14330    0.32013    3.54259
H     -2.73830   -6.13563    4.09063
H     -1.89617   -6.52260    2.57226
H      1.72440   -0.53026    1.80128
H      1.57957    1.55767    0.52555
H      1.32693    1.83614    2.11355
