35

C     -2.40690    1.92263   -1.28128
C     -3.07298    3.76762    0.13556
C     -1.75558    1.30182   -0.20354
C     -3.04484    3.15387   -1.11949
C     -1.76367    1.91832    1.06380
C     -2.44548    3.14009    1.20805
C     -1.03807   -0.00996   -0.41955
C     -2.85391   -3.77761   -1.73644
C     -3.76992   -2.59652   -1.38826
C     -1.57199   -3.30200   -2.43421
C     -3.03443   -1.53881   -0.55390
C     -0.83255   -2.24681   -1.60036
C     -1.74747   -1.06246   -1.26867
C     -1.85839    0.38921    2.86149
O      0.04710   -0.22657    0.09589
O     -3.66905    3.81138   -2.15097
O     -1.11547    1.37870    2.14016
Cl    -2.50374    3.90330    2.78156
H     -2.39162    1.45639   -2.26315
H     -3.57883    4.71895    0.26100
H     -3.38820   -4.49615   -2.36885
H     -2.58581   -4.30915   -0.81308
H     -4.13455   -2.13261   -2.31541
H     -4.65480   -2.94611   -0.84375
H     -0.90874   -4.15274   -2.62805
H     -1.83040   -2.87860   -3.41526
H     -3.69323   -0.68863   -0.34785
H     -2.75655   -1.97178    0.41649
H     -0.47532   -2.69097   -0.66453
H      0.05885   -1.89099   -2.12715
H     -2.06286   -0.59234   -2.21051
H     -1.22126    0.07457    3.68934
H     -2.08058   -0.47576    2.22566
H     -2.79301    0.80932    3.25234
H     -3.56207    3.30028   -2.96870
