28

C      4.26329    0.08272   -0.14963
C      4.35719    1.37924   -0.65031
C      2.08491    1.60746   -0.98416
C      1.12659   -1.70787    0.24546
C      1.84680    0.31351   -0.48034
C      0.67282   -0.50933   -0.27146
C      2.97257   -0.44939   -0.06851
C     -0.75256   -0.13182   -0.55854
C     -2.69429    1.39812    0.18213
C     -1.20267    1.07622    0.28067
N      3.30573    2.12727   -1.06077
N      2.50395   -1.67431    0.36524
N     -0.83881    0.79504    1.73267
O     -2.90889    1.70326   -1.18021
H      5.14997   -0.46831    0.14914
H      5.33203    1.85286   -0.73790
H      1.27145    2.23237   -1.35478
H      0.57335   -2.60395    0.49836
H     -1.42214   -0.97954   -0.36896
H     -0.89424    0.15060   -1.60535
H     -3.28604    0.52567    0.50658
H     -2.94299    2.24758    0.83695
H     -0.62159    1.95984    0.01063
H      3.07860   -2.44651    0.67775
H      0.10917    0.37199    1.73248
H     -1.47676    0.11183    2.15889
H     -0.83513    1.63820    2.31759
H     -3.82714    1.98819   -1.31425
