33

C     -1.25588   -0.60568    0.19617
C      1.55122    0.96636   -0.61222
C      1.70497   -0.49850   -1.03933
C      0.10837    1.46357   -0.44828
C      1.10346   -1.50657   -0.05121
C     -0.68011    0.72868    0.64824
C     -4.95291    1.81138    5.65779
C     -3.89669    1.03872    4.85990
C     -3.55292    1.71822    3.52750
C     -2.50245    0.93646    2.74149
N     -0.35800   -1.59129   -0.08756
O     -2.47135   -0.78697    0.08121
O     -1.35970    3.12100    1.66664
S     -2.07419    1.85512    1.20102
H      2.08339    1.11881    0.33642
H      2.05252    1.60446   -1.34887
H      1.25138   -0.65928   -2.02500
H      2.77391   -0.72290   -1.13970
H      0.13926    2.52182   -0.16922
H     -0.43513    1.38996   -1.39786
H      1.47159   -2.50985   -0.27953
H      1.43875   -1.27674    0.96857
H     -0.04130    0.60609    1.53169
H     -5.88804    1.89910    5.09304
H     -5.18023    1.31141    6.60535
H     -4.60835    2.82578    5.88810
H     -2.98326    0.93976    5.46073
H     -4.25299    0.01808    4.66919
H     -4.46322    1.81747    2.92259
H     -3.18052    2.73154    3.71386
H     -1.57293    0.84043    3.31391
H     -2.86422   -0.04916    2.44009
H     -0.78657   -2.44632   -0.42412
