19   

C        0.2864808700   -1.1772538858    0.6306168389
C        2.6562739628   -0.8078656007    0.4968734531
C        0.4337981229   -1.4176321120    2.0060663666
C        2.7337698592   -1.0584041426    1.8789038419
C        1.4104712069   -0.8736013174   -0.1498429341
C        1.1656998246   -0.5942062121   -1.6246463529
C        1.7530026476   -1.5937699139    4.0526578140
N        1.6391338160   -1.3614684188    2.6047003045
N        2.2551292836   -0.6108878080   -2.4426087570
O        0.0635738956   -0.3758916567   -2.0890632294
H       -0.6991717490   -1.2198421679    0.1684591411
H        3.5573719126   -0.5464107185   -0.0498074303
H       -0.4534317945   -1.6503497571    2.5895151920
H        3.7031377869   -0.9986695207    2.3671969672
H        1.8705902364   -2.6625805363    4.2599611805
H        2.6149079091   -1.0560638992    4.4604993170
H        0.8606471848   -1.2257955365    4.5693542120
H        2.0596278954   -0.4491956569   -3.4266777556
H        3.1639007156   -0.9308467903   -2.1383675640
19   

C        0.3036069957   -1.1998505692    0.6072979876
C        2.6563242001   -0.7241135049    0.5104629040
C        0.4471437656   -1.4691835197    1.9779825993
C        2.7310890971   -1.0063200134    1.8863185723
C        1.4219075580   -0.8248216757   -0.1501957205
C        1.1976617185   -0.5066853582   -1.6174457621
C        1.7508066366   -1.6326883291    4.0358363855
N        1.6429201684   -1.3749178102    2.5917366151
N        2.2370359440   -0.7602820158   -2.4587974403
O        0.1364295367   -0.1117754402   -2.0587091510
H       -0.6729411496   -1.2670211519    0.1292770796
H        3.5460270702   -0.4053382838   -0.0259814717
H       -0.4350908173   -1.7534841155    2.5459383308
H        3.6917338763   -0.9146585238    2.3867669327
H        1.9020423463   -2.7008868907    4.2233003235
H        2.5905067784   -1.0750781137    4.4628772824
H        0.8420420507   -1.3043330125    4.5506745703
H        2.0495035570   -0.5970352123   -3.4441121938
H        3.0682442048   -1.2525598176   -2.1600329008
19   

C        0.3257686691   -1.2238159584    0.5927635433
C        2.6570350552   -0.6498709907    0.5313247494
C        0.4675443467   -1.5196155285    1.9583684509
C        2.7314624589   -0.9610115264    1.9007543547
C        1.4341119301   -0.7802619666   -0.1424254813
C        1.2309157939   -0.4273175026   -1.6034517451
C        1.7564794660   -1.6708810164    4.0266198866
N        1.6525893181   -1.3893139557    2.5866728948
N        2.1631952416   -0.8982640296   -2.4724962612
O        0.2377260188    0.1368138989   -2.0167400024
H       -0.6417003174   -1.3154449101    0.1011158806
H        3.5353589642   -0.2844005476    0.0049102139
H       -0.4073645735   -1.8523735611    2.5111276819
H        3.6832490497   -0.8415136932    2.4121499131
H        1.9393625576   -2.7371316074    4.1958469965
H        2.5749172416   -1.0956667960    4.4712742757
H        0.8338519350   -1.3799420901    4.5393549181
H        1.9745139910   -0.7263411114   -3.4560266689
H        2.9106519682   -1.5147932982   -2.1811226426
19   

C        0.3586359055   -1.2687973475    0.5748070860
C        2.6627172084   -0.5956878631    0.5503218587
C        0.4986205209   -1.5835783958    1.9366256970
C        2.7369254111   -0.9283434400    1.9144186752
C        1.4538003414   -0.7611299479   -0.1387378690
C        1.2674855389   -0.3691497741   -1.5917339724
C        1.7688279306   -1.7086743068    4.0184268382
N        1.6699869037   -1.4131287781    2.5809214077
N        2.0351645654   -1.0228903143   -2.4987149654
O        0.3893876224    0.3824006943   -1.9634043453
H       -0.5992468278   -1.3886617289    0.0714428067
H        3.5287553095   -0.1846122460    0.0367282654
H       -0.3670785971   -1.9619124959    2.4743595702
H        3.6776854612   -0.7770629794    2.4376709113
H        1.9890519679   -2.7693957215    4.1772524732
H        2.5607162978   -1.1091750605    4.4788705385
H        0.8308552611   -1.4574667773    4.5243381685
H        1.8451646777   -0.8139296683   -3.4746890350
H        2.6826304815   -1.7536087422   -2.2315563201
19   

C        0.4140868393   -1.3083822636    0.5436590505
C        2.6859558442   -0.5406427350    0.5833093315
C        0.5362419116   -1.6378272387    1.9041730572
C        2.7443132441   -0.8901934850    1.9434728462
C        1.5026591056   -0.7457761842   -0.1378624091
C        1.3479185484   -0.3091795893   -1.5821885613
C        1.7613892273   -1.7348158559    4.0148513157
N        1.6841869195   -1.4283610548    2.5783109541
N        1.9106401949   -1.1033772470   -2.5239326096
O        0.6790871440    0.6486505358   -1.9108594600
H       -0.5280622741   -1.4574808791    0.0197768646
H        3.5435592301   -0.0832092546    0.0949545884
H       -0.3250572679   -2.0579340686    2.4173905395
H        3.6658401149   -0.7056578633    2.4897766296
H        2.0334058706   -2.7840971969    4.1690476563
H        2.5080658872   -1.0992149261    4.5017591224
H        0.7988261184   -1.5389019054    4.4985086894
H        1.7567673959   -0.8297719255   -3.4901678266
H        2.4127564031   -1.9498816480   -2.2864857852
19   

C        0.8825351905   -0.0594729013    0.7027870194
C        2.5012435306   -1.8071478486    0.4445668541
C        0.8111571892   -0.3740664884    2.0711538084
C        2.3870412181   -2.0727582695    1.8193589924
C        1.7380838303   -0.7861865318   -0.1357525593
C        1.9094634904   -0.3965973490   -1.5921232880
C        1.4959922745   -1.6360174805    4.0497536982
N        1.5528148297   -1.3646888884    2.6052297958
N        1.0642500478   -0.9669575755   -2.4828358982
O        2.7662935394    0.3754369024   -1.9692528300
H        0.2986470957    0.7630117247    0.2951267184
H        3.2023168920   -2.3683549580   -0.1696642937
H        0.1503095347    0.2104133674    2.7062081103
H        3.0007015849   -2.8596414456    2.2506659559
H        0.8076012501   -2.4615886753    4.2579216927
H        2.4907015703   -1.8938848505    4.4279615694
H        1.1585900555   -0.7476438664    4.5932223792
H        1.1954343368   -0.7062582985   -3.4559398321
H        0.3487855170   -1.6262121872   -2.2022281459
19   

C        0.8746126593   -0.1262219122    0.6757125567
C        2.5759319547   -1.7990355365    0.4797696349
C        0.7899626367   -0.4227781781    2.0479175903
C        2.4469952780   -2.0494323411    1.8555051919
C        1.7751244053   -0.8284857026   -0.1353722821
C        1.9775249397   -0.4608081465   -1.5933599693
C        1.4897035782   -1.6234608424    4.0598047634
N        1.5643845592   -1.3703033498    2.6128111663
N        0.9964967806   -0.8231676166   -2.4546216147
O        3.0037437013    0.0360237542   -2.0094246013
H        0.2621976731    0.6634961264    0.2462665937
H        3.3168119100   -2.3322777575   -0.1128933374
H        0.0909760726    0.1402475368    2.6611481657
H        3.0890241315   -2.7996248360    2.3102542774
H        0.8287079674   -2.4714379203    4.2667904255
H        2.4857605333   -1.8392143023    4.4602004087
H        1.1094037284   -0.7409122501    4.5840437101
H        1.1705693989   -0.6302853739   -3.4367984388
H        0.1717264929   -1.3264504356   -2.1521574420
19   

C        0.8464008206   -0.1789808379    0.6543208252
C        2.6181517154   -1.7785024224    0.5015768531
C        0.7601006119   -0.4591873312    2.0303471458
C        2.4864878550   -2.0152306180    1.8789352155
C        1.7824719591   -0.8539114350   -0.1385412639
C        1.9917886041   -0.5166036486   -1.6026124916
C        1.4865931831   -1.6036875000    4.0662146762
N        1.5676234470   -1.3647444606    2.6171636099
N        0.9146193507   -0.6557219641   -2.4166198162
O        3.0829588734   -0.2615683463   -2.0700736051
H        0.2046972108    0.5785127146    0.2103375449
H        3.3863299407   -2.2883364698   -0.0774848160
H        0.0312919418    0.0816305929    2.6286532834
H        3.1552490314   -2.7314467881    2.3496820650
H        0.8781997023   -2.4898538549    4.2746580132
H        2.4881309428   -1.7498987194    4.4840511514
H        1.0417495896   -0.7413722469    4.5729275820
H        1.0865807361   -0.5106901904   -3.4074528349
H        0.0291888781   -1.0146949609   -2.0825186806
19   

C        0.8337299207   -0.2572101957    0.6146948343
C        2.6714568712   -1.7811928262    0.5168617082
C        0.7478755175   -0.5065117593    1.9970712964
C        2.5390825386   -1.9898273623    1.8982459980
C        1.8039498565   -0.9090017770   -0.1557662292
C        2.0105067482   -0.6317080283   -1.6332822940
C        1.5000101202   -1.5732174666    4.0658576308
N        1.5872119389   -1.3620729625    2.6128736864
N        0.8853041779   -0.5576089552   -2.3938100279
O        3.1078139974   -0.5838263838   -2.1519079141
H        0.1616700018    0.4614348084    0.1522611089
H        3.4620496610   -2.2774529818   -0.0441706840
H       -0.0089988538    0.0161394018    2.5763788346
H        3.2324869259   -2.6672697257    2.3902717680
H        0.9102346437   -2.4687672570    4.2875103746
H        2.5010928906   -1.6888903530    4.4941608417
H        1.0320787102   -0.7110339579    4.5515210933
H        1.0379269127   -0.4520598215   -3.3928834901
H       -0.0307379651   -0.7760487459   -2.0240712451
19   

C        0.8162636401   -0.3239022777    0.6050655645
C        2.7236701986   -1.7580644325    0.5582564921
C        0.7277433017   -0.5489421576    1.9917759667
C        2.5871789149   -1.9455328763    1.9418445315
C        1.8253951989   -0.9403409831   -0.1446399812
C        2.0329836365   -0.7216045589   -1.6332575127
C        1.5021185379   -1.5418520475    4.0889338242
N        1.5993080706   -1.3505097973    2.6338698850
N        0.9233674615   -0.4361053863   -2.3689174360
O        3.1117624523   -0.8482509728   -2.1779045898
H        0.1104051584    0.3508678210    0.1285535382
H        3.5389671646   -2.2357561915    0.0163378041
H       -0.0606962820   -0.0536387175    2.5527134013
H        3.3049255170   -2.5822364327    2.4529983051
H        0.9276703086   -2.4455078628    4.3180326926
H        2.5009024361   -1.6327927913    4.5283426585
H        1.0135160835   -0.6816075367    4.5573384755
H        1.0769809321   -0.3492310546   -3.3697147114
H       -0.0111436814   -0.5045669455   -1.9891408783
19   

C        0.7842931523   -0.3873911720    0.5957805507
C        2.7581893246   -1.7249737305    0.5794811564
C        0.7079555228   -0.5849943143    1.9876883775
C        2.6324778180   -1.8880852681    1.9668125196
C        1.8227128695   -0.9666135046   -0.1441015965
C        2.0156619535   -0.8104768409   -1.6451238941
C        1.5246046857   -1.4991066467    4.1045926170
N        1.6174289376   -1.3276115566    2.6467933884
N        0.9601305889   -0.3259944160   -2.3572048916
O        3.0469732736   -1.1076015682   -2.2155983831
H        0.0366331315    0.2340429387    0.1124605606
H        3.5917906474   -2.1840092015    0.0491656375
H       -0.1059965940   -0.1203124553    2.5382802514
H        3.3788360511   -2.4809025847    2.4896425053
H        0.9803677454   -2.4179555351    4.3469308577
H        2.5251110097   -1.5505849201    4.5463847081
H        1.0068964872   -0.6484883323    4.5590347129
H        1.1104158105   -0.2587609331   -3.3600538553
H        0.0395266670   -0.2025433535   -1.9601012257
19   

C        0.7330929598   -0.5094652467    0.5954289073
C        2.8006320362   -1.6905354293    0.6002610633
C        0.6804948954   -0.6719503080    1.9930510184
C        2.6974802683   -1.8231397865    1.9925297175
C        1.8080301234   -1.0241175393   -0.1405108236
C        1.9867015621   -0.9252420445   -1.6510636572
C        1.5732300442   -1.4671338287    4.1272181039
N        1.6480825192   -1.3223405811    2.6655148830
N        1.0220090917   -0.2819136544   -2.3565450078
O        2.9426418387   -1.3964477305   -2.2359248202
H       -0.0755949670    0.0201392335    0.1023208371
H        3.6606374747   -2.1092615571    0.0787429427
H       -0.1670763292   -0.2617964662    2.5361651559
H        3.4883348095   -2.3463129001    2.5242026043
H        1.1022170705   -2.4195890964    4.3923583022
H        2.5760267080   -1.4317261354    4.5653212479
H        0.9924892937   -0.6491436838    4.5650000806
H        1.1765408375   -0.2359157451   -3.3599045608
H        0.2083988158    0.1410939244   -1.9342042196
19   

C        0.6829829777   -0.5837034880    0.5767173092
C        2.8300345267   -1.6209607023    0.5906509921
C        0.6504082393   -0.7200442841    1.9776510496
C        2.7435700922   -1.7305242585    1.9862239269
C        1.7898761614   -1.0371292503   -0.1516997739
C        1.9236473073   -0.9700900334   -1.6656918770
C        1.6043802035   -1.4156122664    4.1199157351
N        1.6655448867   -1.2877437919    2.6560036033
N        1.0517816957   -0.1596717989   -2.3282856543
O        2.7670126159   -1.5886321769   -2.2849476012
H       -0.1708449634   -0.1408935482    0.0731025911
H        3.7078173356   -1.9978071548    0.0668961413
H       -0.2232778617   -0.3644813173    2.5178879906
H        3.5690620647   -2.1912471047    2.5229960191
H        1.1844851273   -2.3875320102    4.4001119486
H        2.6056969379   -1.3228737806    4.5528752805
H        0.9837262020   -0.6228002000    4.5491488114
H        1.1835301085   -0.1154584642   -3.3350133441
H        0.4319891084    0.4834603146   -1.8564218531
19   

C        0.6472606038   -0.6382504817    0.5718442822
C        2.8442196499   -1.5713800822    0.5825503630
C        0.6334853021   -0.7499984414    1.9749636381
C        2.7745582066   -1.6591476496    1.9809556602
C        1.7707157047   -1.0494969952   -0.1556935997
C        1.8566075560   -1.0280604318   -1.6719123050
C        1.6351305057   -1.3699725422    4.1185948403
N        1.6815078471   -1.2561679441    2.6529808472
N        1.1315717341   -0.0691699481   -2.3111899880
O        2.5737119665   -1.7765259013   -2.3059643144
H       -0.2313123867   -0.2561408419    0.0593263101
H        3.7286196058   -1.9233992587    0.0529402833
H       -0.2534346433   -0.4310177333    2.5164888950
H        3.6236695418   -2.0740291542    2.5182665214
H        1.2724067510   -2.3609373967    4.4118702383
H        2.6315999814   -1.2156142279    4.5450023398
H        0.9718982216   -0.6093451785    4.5422993177
H        1.2477568026   -0.0382672591   -3.3202917680
H        0.6728042136    0.6836446124   -1.8162007070
19   

C        0.6014738179   -0.6848093845    0.5733265652
C        2.8411953733   -1.5171572350    0.5641365970
C        0.6093486015   -0.7834575442    1.9771144058
C        2.7911805818   -1.5946128569    1.9644135221
C        1.7363018109   -1.0493131697   -0.1613831732
C        1.7729551764   -1.0606300802   -1.6783900612
C        1.6615759187   -1.3441099735    4.1126318783
N        1.6880851588   -1.2352652483    2.6461363314
N        1.2317293030    0.0176403587   -2.3048139555
O        2.3441444995   -1.9195111791   -2.3198492471
H       -0.2971048258   -0.3515288090    0.0601089783
H        3.7296175532   -1.8412276793    0.0239973039
H       -0.2857679972   -0.5022905045    2.5260655770
H        3.6627350128   -1.9688707711    2.4955722645
H        1.3553689970   -2.3517925815    4.4134673520
H        2.6520543940   -1.1341906394    4.5290619387
H        0.9616951713   -0.6187929487    4.5392734375
H        1.3339645155    0.0340940034   -3.3156770261
H        0.9120876309    0.8323184351   -1.7971893547
19   

C        0.5489804597   -0.7298392462    0.5887153710
C        2.8251118778   -1.4634914309    0.5507810007
C        0.5818105249   -0.8164632895    1.9925572061
C        2.7981071754   -1.5314803100    1.9526209043
C        1.6894155486   -1.0497851109   -0.1579476132
C        1.6767117763   -1.0897704077   -1.6743369146
C        1.6870832880   -1.3202019626    4.1151439807
N        1.6895488474   -1.2156782534    2.6480904565
N        1.3504569205    0.0655163354   -2.3068449263
O        2.0607028050   -2.0493533721   -2.3115037616
H       -0.3686432542   -0.4413967347    0.0813250611
H        3.7160432311   -1.7584486806   -0.0011073008
H       -0.3173249140   -0.5716722760    2.5522639530
H        3.6915197856   -1.8653351570    2.4742966093
H        1.4423455621   -2.3426388973    4.4225617165
H        2.6687393456   -1.0523898999    4.5189758764
H        0.9514767328   -0.6350946478    4.5480860176
H        1.4279880432    0.0530136740   -3.3198540557
H        1.1742975232    0.9251845655   -1.8024601309
19   

C        0.5131956429   -0.7853518027    0.5900599198
C        2.8243003535   -1.4068817238    0.5321538011
C        0.5626373132   -0.8658383197    1.9932914571
C        2.8117814534   -1.4716425749    1.9348854424
C        1.6620386824   -1.0535442097   -0.1651374088
C        1.6181017617   -1.1039379735   -1.6807218320
C        1.7080808775   -1.3131990434    4.1064266578
N        1.6944535669   -1.2091931985    2.6393848424
N        1.5313937130    0.0847768965   -2.3243078096
O        1.7612984787   -2.1321158895   -2.3095590575
H       -0.4204445022   -0.5433230198    0.0872177581
H        3.7236746363   -1.6611634984   -0.0254898624
H       -0.3428161726   -0.6638760864    2.5598768539
H        3.7241085102   -1.7605434048    2.4505997971
H        1.5006298138   -2.3432929602    4.4157990356
H        2.6834173822   -1.0124959642    4.5022200206
H        0.9532954862   -0.6532278586    4.5454095013
H        1.5681106436    0.0472252171   -3.3389114719
H        1.5094003872    0.9668309257   -1.8277991840
19   

C        0.4518254305   -0.8326955226    0.6055454010
C        2.7928953572   -1.3347354118    0.5125246832
C        0.5247581917   -0.9134197722    2.0071801252
C        2.8017819075   -1.4028573836    1.9157291749
C        1.6020626343   -1.0457351341   -0.1658178352
C        1.5232931668   -1.0813211708   -1.6804713514
C        1.7195712337   -1.3082819230    4.1025563766
N        1.6815227040   -1.2007988027    2.6361784465
N        1.6867989800    0.0963651955   -2.3278136760
O        1.3407837392   -2.1048815666   -2.3061213504
H       -0.4983968374   -0.6358685073    0.1136993121
H        3.6983884779   -1.5376306201   -0.0554965788
H       -0.3821456636   -0.7582405387    2.5860606022
H        3.7342883236   -1.6442760878    2.4196247512
H        1.5546556203   -2.3462291704    4.4113243362
H        2.6884248541   -0.9729035504    4.4861206245
H        0.9469680284   -0.6778892925    4.5539040229
H        1.6432973290    0.0604190117   -3.3421723806
H        1.8565312885    0.9642944771   -1.8347198349
19   

C        0.3931385634   -0.8818916160    0.6274668863
C        2.7578314410   -1.2604585461    0.4993851772
C        0.4893426402   -0.9623451024    2.0271300960
C        2.7881713690   -1.3317565831    1.9027310563
C        1.5418869119   -1.0388317979   -0.1599579249
C        1.4265773757   -1.0511547745   -1.6722924499
C        1.7307681465   -1.3004725979    4.1043622360
N        1.6681000625   -1.1916755784    2.6389139810
N        1.8338877066    0.0633290987   -2.3254812437
O        0.9132419249   -1.9647202423   -2.2844108662
H       -0.5711568177   -0.7309596324    0.1461485880
H        3.6668638408   -1.4087475320   -0.0793043285
H       -0.4166426239   -0.8544339663    2.6180734228
H        3.7384714904   -1.5231923423    2.3947050123
H        1.6000192807   -2.3432116329    4.4133480984
H        2.6951490279   -0.9385718272    4.4747673274
H        0.9472807090   -0.6927637460    4.5679757161
H        1.7045052956    0.0639190321   -3.3331554054
H        2.1989840402    0.8719388959   -1.8376933582
19   

C        0.3518106705   -0.9386928560    0.6377288666
C        2.7327552504   -1.2001692252    0.4873491692
C        0.4628039077   -1.0275133338    2.0353586623
C        2.7764793289   -1.2831881052    1.8901315470
C        1.5007851523   -1.0331784360   -0.1593680248
C        1.3553691648   -1.0125911170   -1.6685540578
C        1.7354851254   -1.3185481513    4.1001326075
N        1.6563073822   -1.2044942366    2.6358755340
N        1.9901232788   -0.0074403715   -2.3222986621
O        0.6070842113   -1.7565823060   -2.2690012798
H       -0.6214778910   -0.8269258871    0.1628991765
H        3.6446238582   -1.2959886743   -0.0975541649
H       -0.4429160307   -0.9674691616    2.6334809631
H        3.7384061167   -1.4310628586    2.3744702263
H        1.6406466155   -2.3663261404    4.4050371664
H        2.6910855480   -0.9280148872    4.4641356129
H        0.9374161747   -0.7378104745    4.5734406338
H        1.8200768979    0.0492775036   -3.3223820854
H        2.5100389933    0.7105599183   -1.8337142357
19   

C        0.3184063248   -0.9777770014    0.6439296675
C        2.7087688804   -1.1328383036    0.4788256452
C        0.4397165691   -1.0876620129    2.0389028254
C        2.7617197850   -1.2399561117    1.8799558598
C        1.4666209824   -1.0034574849   -0.1592368842
C        1.2932275498   -0.9452966304   -1.6647278276
C        1.7332963399   -1.3522866813    4.0936837903
N        1.6425912580   -1.2222677019    2.6314151924
N        2.1196299037   -0.0970819657   -2.3325405549
O        0.3971142006   -1.5179478399   -2.2516551577
H       -0.6613801081   -0.8960625295    0.1755155145
H        3.6228608303   -1.1802003271   -0.1079805532
H       -0.4651706388   -1.0765605150    2.6411964149
H        3.7309490436   -1.3545437157    2.3587067141
H        1.6686784841   -2.4057871399    4.3863486485
H        2.6799848788   -0.9403520635    4.4574017127
H        0.9227613663   -0.7986311896    4.5782352090
H        1.9416374595   -0.0026062399   -3.3284790884
H        2.7598122363    0.5222337747   -1.8526047209
19   

C        0.2906643052   -1.0117295798    0.6577485480
C        2.6853310512   -1.0602837541    0.4798932585
C        0.4232131263   -1.1461448014    2.0492943223
C        2.7485089630   -1.1948404285    1.8784727817
C        1.4345688903   -0.9654566919   -0.1504500218
C        1.2291305677   -0.8766067200   -1.6517648908
C        1.7359820551   -1.3906469434    4.0939050359
N        1.6332648284   -1.2399103773    2.6344173472
N        2.1941727446   -0.2254026256   -2.3577727673
O        0.2351233448   -1.2921981344   -2.2139709466
H       -0.6956199384   -0.9590577567    0.1982840315
H        3.6009082894   -1.0593091757   -0.1054933873
H       -0.4787225629   -1.1856994175    2.6548224659
H        3.7235489626   -1.2777795683    2.3519016163
H        1.7146929734   -2.4504912348    4.3693599598
H        2.6670502271   -0.9470359543    4.4607003820
H        0.9063847656   -0.8775465320    4.5907588233
H        2.0119457391   -0.1232375547   -3.3522704435
H        2.9406571016    0.2877728400   -1.9083969961
19   

C        0.2747098674   -1.0570422231    0.6535228051
C        2.6698686452   -0.9836283142    0.4862576254
C        0.4085311122   -1.2197079405    2.0417057366
C        2.7333779687   -1.1497921747    1.8816364098
C        1.4172333481   -0.9317593144   -0.1484124152
C        1.1919696050   -0.8068594927   -1.6473013411
C        1.7223741777   -1.4427533397    4.0873747913
N        1.6189922684   -1.2677322587    2.6306347308
N        2.2464915644   -0.3744029988   -2.3936322456
O        0.1318527611   -1.0586333161   -2.1865513975
H       -0.7138462450   -1.0366093440    0.1960846466
H        3.5903484481   -0.9202083163   -0.0863589200
H       -0.4928944874   -1.3164731006    2.6415466560
H        3.7091097790   -1.1944876246    2.3587434118
H        1.7219141054   -2.5074871878    4.3439820667
H        2.6439258658   -0.9876633785    4.4639943051
H        0.8822088825   -0.9543941458    4.5914560850
H        2.0601970535   -0.2728288897   -3.3874798649
H        3.0955731750   -0.0113881898   -1.9836300526
19   

C        0.2849806638   -1.1327645467    0.6470202411
C        2.6717087941   -0.8957627292    0.4869007461
C        0.4307308741   -1.3424774627    2.0274708947
C        2.7459148021   -1.1125566692    1.8750670651
C        1.4177264141   -0.9065802578   -0.1474163771
C        1.1587426288   -0.6842814193   -1.6329146483
C        1.7550126215   -1.5422287213    4.0680799179
N        1.6420388012   -1.3343153583    2.6163371023
N        2.2353888489   -0.4622999018   -2.4305900043
O        0.0461927132   -0.6904648497   -2.1238586014
H       -0.7064594118   -1.1455753746    0.1955196348
H        3.5848721606   -0.7208141495   -0.0728955324
H       -0.4625817192   -1.5155818366    2.6222782106
H        3.7214274468   -1.1005191019    2.3545157241
H        1.8058335562   -2.6118237451    4.2975608536
H        2.6537214647   -1.0529721432    4.4569176099
H        0.8930130160   -1.1069749877    4.5840057455
H        2.0243753223   -0.3197469522   -3.4143805167
H        3.1880471889   -0.4644457452   -2.0961847477
