13   
Generated by ForceBalance from scan.xyz: Frame 1 of 24
C       -1.5034027210   -1.4759685608    1.7607121003
C       -1.6727795943   -1.3676667038    0.4081729159
C       -0.6908344403   -3.4549990037    1.1683212616
C       -0.0129900782   -4.7920730220    1.2767564342
N       -0.9448799088   -2.6659579166    2.1763354527
N       -0.5529980138   -5.7255710057    0.2828510809
S       -1.1286137458   -2.8076970606   -0.4067460748
Br      -2.4312139199    0.0875681200   -0.5319868822
H       -1.7780776415   -0.7198058862    2.4872388255
H        1.0537587169   -4.6583906773    1.0591313875
H       -0.0846967315   -5.1064182785    2.3280999766
H       -1.4904099916   -6.0220584910    0.5481081325
H        0.0268106416   -6.5598466613    0.2299695025
13   
Generated by ForceBalance from scan.xyz: Frame 2 of 24
C       -1.1818697804   -1.3174284175    1.7486570620
C       -1.4354416619   -1.2546332213    0.4064116032
C       -0.5989314452   -3.3878698797    1.2049232758
C       -0.0697431843   -4.7899466671    1.3368812603
N       -0.7110102554   -2.5367503031    2.1871504177
N       -0.5416073730   -5.6185989546    0.2222102066
S       -1.0803273023   -2.7737756189   -0.3699614734
Br      -2.1112092953    0.2261530410   -0.5574048570
H       -1.3307024521   -0.5058781516    2.4518692169
H        1.0249119716   -4.7521458871    1.2898412827
H       -0.3370716994   -5.1533835786    2.3394438011
H       -1.5115062730   -5.8920831687    0.3676500071
H        0.0074360640   -6.4720969013    0.1567940285
13   
Generated by ForceBalance from scan.xyz: Frame 3 of 24
C       -1.1336585383   -1.2952282675    1.7027013416
C       -1.5193364521   -1.2965681754    0.3906892306
C       -0.6125676909   -3.3930873373    1.2061327734
C       -0.1243786088   -4.8090870680    1.3707182718
N       -0.6286933069   -2.4962107146    2.1528391313
N       -0.4768965561   -5.6095492183    0.1918836337
S       -1.2380704310   -2.8517675561   -0.3437712178
Br      -2.2675520100    0.1454101718   -0.5789181140
H       -1.2047857321   -0.4474633715    2.3747438018
H        0.9663227430   -4.7896642507    1.4679748924
H       -0.5296472478   -5.1975863261    2.3156321273
H       -1.4290329104   -5.9605596621    0.2682196597
H        0.1365690053   -6.4157854411    0.1100169990
13   
Generated by ForceBalance from scan.xyz: Frame 4 of 24
C       -1.0304289857   -1.2628982781    1.3460372607
C       -1.5317754666   -1.4142571402    0.0827247270
C       -0.7341597542   -3.4501987121    1.1325324337
C       -0.3018792169   -4.8592428557    1.4503082018
N       -0.5724832581   -2.4269794508    1.9248024319
N       -0.5604323950   -5.7540096338    0.3175663357
S       -1.4583604236   -3.0801506019   -0.4239676111
Br      -2.2455324152   -0.0614598074   -1.0308761509
H       -0.9744535687   -0.3257554133    1.8883242240
H        0.7524257747   -4.8231704842    1.7607319921
H       -0.8597895490   -5.1958899222    2.3303293993
H       -0.7337526318   -6.7021853417    0.6386248215
H        0.2423552977   -5.7881450958   -0.3060397493
13   
Generated by ForceBalance from scan.xyz: Frame 5 of 24
C       -0.9442466798   -1.2617571926    1.2586283542
C       -1.5683579171   -1.4481081431    0.0562145150
C       -0.7312086293   -3.4646696234    1.1131779913
C       -0.3601635601   -4.8787293066    1.4741118162
N       -0.4679413996   -2.4159967685    1.8425650664
N       -0.4975440266   -5.7592300020    0.3102791662
S       -1.5839743485   -3.1334526379   -0.3870364171
Br      -2.3299880431   -0.1167562480   -1.0512157780
H       -0.8044946113   -0.3050444679    1.7490631365
H        0.6435029868   -4.8558944565    1.9229529054
H       -1.0418716869   -5.2225762866    2.2602735825
H       -0.5754969317   -6.7295313781    0.6032383639
H        0.3211103558   -5.6886983545   -0.2904074057
13   
Generated by ForceBalance from scan.xyz: Frame 6 of 24
C       -0.8513505253   -1.2509589549    1.2724588713
C       -1.6023410820   -1.4191798305    0.1421613108
C       -0.7383278221   -3.4619563001    1.1272017057
C       -0.4281408015   -4.8884504309    1.4881897236
N       -0.3653780597   -2.4200559318    1.8181502313
N       -0.4378214808   -5.7308414234    0.2869630878
S       -1.7216457618   -3.1041532769   -0.2852557459
Br      -2.4079563208   -0.0637723480   -0.9026904682
H       -0.6211233188   -0.2974087296    1.7339028346
H        0.5106333097   -4.8883719699    2.0603176341
H       -1.2146977889   -5.2543469412    2.1588694578
H       -0.4575281434   -6.7147046059    0.5443436520
H        0.4066425255   -5.5772371785   -0.2609944939
13   
Generated by ForceBalance from scan.xyz: Frame 7 of 24
C       -0.8017331435   -1.1647409665    1.6112889994
C        0.2027592053   -0.9280203667    0.7142511735
C       -0.0490789812   -3.2436147954    1.4044698264
C        0.0239353372   -4.7376000232    1.5498691924
N       -0.9325643090   -2.4833302713    1.9921198001
N        1.4257213736   -5.1759002505    1.6120740970
S        1.0479850360   -2.3990204634    0.3207856580
Br       0.7101058496    0.7422318889   -0.0129731922
H       -1.4613424524   -0.4100706346    2.0240801329
H       -0.6001565059   -5.0093046468    2.4126337111
H       -0.4156685653   -5.1996430254    0.6580456333
H        1.4772215831   -6.1904644780    1.5488566228
H        1.8371545914   -4.9076158460    2.5044850109
13   
Generated by ForceBalance from scan.xyz: Frame 8 of 24
C       -0.7600958037   -1.1706052266    1.6383946201
C        0.1082029167   -0.9329841369    0.6087844723
C       -0.0626238116   -3.2553216247    1.3133881669
C        0.0311597939   -4.7469606457    1.4697931181
N       -0.8487774709   -2.4908635451    2.0231238360
N        1.4260092777   -5.1495783674    1.7157499944
S        0.8733639022   -2.4074021402    0.0904517113
Br       0.5155276836    0.7376937834   -0.1765472323
H       -1.3488141170   -0.4141624799    2.1444531100
H       -0.6864588980   -5.0273567264    2.2532099692
H       -0.2756802722   -5.2269085687    0.5336636589
H        1.4920920336   -6.1654701571    1.7417652353
H        1.7285006624   -4.8063442590    2.6261764641
13   
Generated by ForceBalance from scan.xyz: Frame 9 of 24
C       -1.0496826040   -1.7787175541    0.3242551912
C       -0.0287085402   -1.3842519100    1.1444774139
C       -0.1387134898   -3.7797108217    0.6716192456
C        0.0023389518   -5.2831503152    0.6685656191
N       -1.1011274140   -3.1316063446    0.0713781137
N       -0.5557228520   -5.9634664843    1.8452356110
S        0.9321364747   -2.7536649297    1.6259318879
Br       0.3692455710    0.3724259142    1.7142083960
H       -1.7830860690   -1.1131069811   -0.1165446725
H       -0.5189978306   -5.6463804455   -0.2211103916
H        1.0544410060   -5.5672028608    0.5666068164
H       -1.5384326456   -5.7125364660    1.9453473479
H       -0.0862241268   -5.6474030377    2.6925620045
13   
Generated by ForceBalance from scan.xyz: Frame 10 of 24
C       -1.1160161740   -1.8021149988    0.4197193199
C       -0.0026286074   -1.3645206883    1.0843586891
C       -0.1165685648   -3.7721297579    0.6845309580
C        0.0552323996   -5.2725146142    0.6906523135
N       -1.1672064286   -3.1605947982    0.2048725583
N       -0.6242031131   -5.9606361652    1.7974139914
S        1.0462991627   -2.7012965895    1.4604124821
Br       0.4284916987    0.4151576396    1.5494408184
H       -1.9178390553   -1.1632471527    0.0672099135
H       -0.3507737059   -5.6528685365   -0.2507420758
H        1.1176464942   -5.5327317894    0.7173117004
H       -1.6160117401   -5.7265083263    1.7756245410
H       -0.2663708475   -5.6224997670    2.6898998685
13   
Generated by ForceBalance from scan.xyz: Frame 11 of 24
C       -1.1361514858   -1.8131947163    0.5254535254
C        0.0501102414   -1.3479159078    1.0258113872
C       -0.0915371803   -3.7669812520    0.7226639500
C        0.0981233808   -5.2669364113    0.7216199844
N       -1.2009809760   -3.1775082953    0.3619316516
N       -0.6932931766   -5.9807543105    1.7316848686
S        1.1494490318   -2.6667203548    1.3078376664
Br       0.5197159555    0.4481872910    1.3768218469
H       -1.9833471673   -1.1905181465    0.2610113111
H       -0.1893019008   -5.6423797774   -0.2651086228
H        1.1544520299   -5.5122908408    0.8664583222
H       -1.6776244320   -5.7503985353    1.6005094416
H       -0.4430148927   -5.6486696440    2.6624600884
13   
Generated by ForceBalance from scan.xyz: Frame 12 of 24
C       -1.1979504216   -1.8283593733    0.6323858353
C        0.0313948596   -1.3193178333    0.9534452154
C       -0.0892738109   -3.7515702102    0.7717203831
C        0.1418052011   -5.2480280863    0.7619420123
N       -1.2499692827   -3.1996613220    0.5351723214
N       -0.7363439746   -6.0072068686    1.6568676388
S        1.1882073840   -2.6045249120    1.1483451950
Br       0.4971365233    0.4985032076    1.1743683630
H       -2.0879627191   -1.2343312451    0.4580741694
H       -0.0166112206   -5.6103325167   -0.2594390204
H        1.1835431227   -5.4655078792    1.0163567141
H       -1.7047537599   -5.7863748029    1.4274506341
H       -0.5953868854   -5.6954679253    2.6171444499
13   
Generated by ForceBalance from scan.xyz: Frame 13 of 24
C       -1.2169593591   -1.8228473863    0.7388353875
C        0.0359410562   -1.2913272752    0.8773161823
C       -0.0754960368   -3.7303472438    0.8206590954
C        0.1774819599   -5.2251431020    0.8059751057
N       -1.2632904353   -3.1984413574    0.7098499872
N       -0.7835535957   -6.0170527676    1.5732167463
S        1.2250909786   -2.5584705742    0.9825413089
Br       0.5027270931    0.5376888226    0.9651082870
H       -2.1301257803   -1.2443662985    0.6565285622
H        0.1480187022   -5.5659776308   -0.2355983318
H        1.1885795701   -5.4328520437    1.1698708348
H       -1.7232050188   -5.7922779100    1.2481194175
H       -0.7526909718   -5.7304493879    2.5509334268
13   
Generated by ForceBalance from scan.xyz: Frame 14 of 24
C       -1.2078794596   -1.8351474230    0.8557382017
C        0.0492334057   -1.3003086207    0.8098266993
C       -0.0568838075   -3.7398398960    0.8676187651
C        0.2047748828   -5.2345407775    0.8566574244
N       -1.2507468713   -3.2122272331    0.8887073469
N       -0.8307668735   -6.0441034069    1.4915378054
S        1.2497979141   -2.5625961598    0.8132206342
Br       0.5163038805    0.5303371888    0.7651442158
H       -2.1270504681   -1.2606023802    0.8698228508
H        0.3052146724   -5.5578016874   -0.1868134777
H        1.1687185624   -5.4420260996    1.3326980685
H       -1.7297403442   -5.8122772604    1.0706746376
H       -0.9130390059   -5.7746643064    2.4711498497
13   
Generated by ForceBalance from scan.xyz: Frame 15 of 24
C       -1.2205035220   -1.8014373717    0.9717406370
C        0.0115179290   -1.2582727631    0.7415360053
C       -0.0547302106   -3.6961792956    0.8898236670
C        0.2300645057   -5.1876530864    0.8968982714
N       -1.2411556387   -3.1783065959    1.0529784137
N       -0.8573505087   -6.0187830918    1.3986092123
S        1.2188755460   -2.5094636245    0.6206551665
Br       0.4454174992    0.5735600540    0.5739894758
H       -2.1372285527   -1.2351957986    1.0902022690
H        0.4676741387   -5.5020875092   -0.1267803685
H        1.1314153464   -5.3811311939    1.4889357256
H       -1.7032888445   -5.8084940576    0.8703716814
H       -1.0694133336   -5.7470530889    2.3578292622
13   
Generated by ForceBalance from scan.xyz: Frame 16 of 24
C       -1.2010822816   -1.7750332281    1.1003406389
C       -0.0151800138   -1.2418220102    0.6827347513
C       -0.0565158178   -3.6747913213    0.9059287827
C        0.2416108779   -5.1633615655    0.9477750521
N       -1.2082631500   -3.1495362584    1.2212658915
N       -0.8876122522   -6.0063011293    1.3190778463
S        1.1634743125   -2.4992149371    0.4212001583
Br       0.3860952387    0.5829415155    0.3975961335
H       -2.0932408204   -1.2037555462    1.3299053422
H        0.6137337854   -5.4806282018   -0.0333019765
H        1.0616451317   -5.3403849406    1.6537607719
H       -1.6545902145   -5.8396236831    0.6688360762
H       -1.2415983747   -5.7054242160    2.2262564286
13   
Generated by ForceBalance from scan.xyz: Frame 17 of 24
C       -1.1660099382   -1.7437544699    1.2182139795
C       -0.0496292512   -1.2300794349    0.6212176023
C       -0.0610332908   -3.6539130396    0.9267702548
C        0.2478636122   -5.1384530189    1.0033100562
N       -1.1571505257   -3.1129085738    1.3834330721
N       -0.9085855105   -5.9942225108    1.2432570218
S        1.0769504969   -2.5021573676    0.2342502058
Br       0.3057351286    0.5818220627    0.2180033447
H       -2.0173541186   -1.1605970766    1.5502084108
H        0.7429765256   -5.4554301795    0.0791291227
H        0.9734578111   -5.3004204617    1.8098396494
H       -1.5793480979   -5.8693981074    0.4860489052
H       -1.3890948268   -5.6696606880    2.0814605466
13   
Generated by ForceBalance from scan.xyz: Frame 18 of 24
C       -1.0931404555   -1.7581561225    1.3061845492
C       -0.0574571020   -1.2846703503    0.5494585870
C       -0.0498527862   -3.6924110209    0.9585428780
C        0.2461973079   -5.1769288383    1.0606655404
N       -1.0751197773   -3.1178505737    1.5272056211
N       -0.9346633848   -6.0313484473    1.1595098190
S        0.9973145761   -2.5875963545    0.0769032296
Br       0.2570927554    0.5037623115    0.0261676651
H       -1.8897511074   -1.1492821241    1.7183646527
H        0.8481223074   -5.4926688148    0.2025429360
H        0.8644836559   -5.3430909507    1.9511520175
H       -1.5086932739   -5.9082978240    0.3262371284
H       -1.5085602018   -5.7054256818    1.9363381307
13   
Generated by ForceBalance from scan.xyz: Frame 19 of 24
C       -1.0384826046   -1.7270696620    1.4024904293
C       -0.1061380469   -1.2875714415    0.5026406573
C       -0.0405347677   -3.6757922490    1.0065456296
C        0.2481460816   -5.1597351420    1.1138867181
N       -0.9890910967   -3.0753177130    1.6747578802
N       -0.9365762062   -6.0179018427    1.0618606443
S        0.8842155021   -2.6110593166   -0.0426990805
Br       0.1379186660    0.4779571962   -0.1248103061
H       -1.7773152139   -1.0986524690    1.8868158420
H        0.9433572073   -5.4608597525    0.3242198845
H        0.7577486921   -5.3409898429    2.0671560245
H       -1.4139784915   -5.8808682041    0.1716303736
H       -1.5921119318   -5.7101937359    1.7794313504
13   
Generated by ForceBalance from scan.xyz: Frame 20 of 24
C       -0.9663500168   -1.7146815914    1.4789256230
C       -0.1511694803   -1.3246101960    0.4508180468
C       -0.0262252501   -3.6867807523    1.0589826993
C        0.2394469832   -5.1727253208    1.1711418968
N       -0.8854068700   -3.0478375197    1.8084805218
N       -0.9400165129   -6.0200495287    0.9674058360
S        0.7664839226   -2.6784787577   -0.1429662684
Br       0.0211598832    0.4089990618   -0.2806252249
H       -1.6373358586   -1.0576716633    2.0206984538
H        1.0153438428   -5.4678649129    0.4583849763
H        0.6342775584   -5.3729044866    2.1726304940
H       -1.3188559412   -5.8588238968    0.0348088873
H       -1.6661029311   -5.7312443123    1.6221259570
13   
Generated by ForceBalance from scan.xyz: Frame 21 of 24
C       -0.8573136515   -1.6840938219    1.5249681972
C       -0.1705847992   -1.3627985664    0.3851839377
C       -0.0032119245   -3.6928702301    1.0982297730
C        0.2218086724   -5.1819269680    1.2277030175
N       -0.7548528186   -3.0000321405    1.9127058426
N       -0.9432767459   -6.0061595956    0.8813790604
S        0.6518152514   -2.7616310438   -0.2428025422
Br      -0.0601704253    0.3296391226   -0.4474407228
H       -1.4450958613   -0.9865166400    2.1108610810
H        1.0670631263   -5.4900115154    0.6050554413
H        0.4926559975   -5.3908378083    2.2668697103
H       -1.2161878984   -5.8293771706   -0.0847404892
H       -1.7324999017   -5.7207827793    1.4599466052
13   
Generated by ForceBalance from scan.xyz: Frame 22 of 24
C       -0.7830510628   -1.6568501125    1.6005063724
C       -0.2453216311   -1.3849151646    0.3719549731
C       -0.0055735938   -3.6910719756    1.1426444876
C        0.2016667670   -5.1807224394    1.2762231243
N       -0.6431988529   -2.9607547873    2.0189193713
N       -0.9178665978   -5.9992587200    0.7887111506
S        0.4823587581   -2.8137431724   -0.3047896692
Br      -0.2276826747    0.2758312411   -0.5284667810
H       -1.2849189788   -0.9319415947    2.2313529164
H        1.1111064010   -5.4874288618    0.7508330948
H        0.3457072224   -5.3961505495    2.3384333376
H       -1.0789420387   -5.8165232920   -0.2010233830
H       -1.7693219159   -5.7234914512    1.2765642424
13   
Generated by ForceBalance from scan.xyz: Frame 23 of 24
C       -0.6753377141   -1.6208285578    1.6416223246
C       -0.3058051440   -1.4124206579    0.3415848330
C       -0.0262620491   -3.6966568355    1.1664366877
C        0.1664110744   -5.1856473468    1.3287173874
N       -0.5169114974   -2.9137797873    2.0897895968
N       -0.8781257173   -6.0198400805    0.7175899311
S        0.2810591712   -2.8884094809   -0.3711206409
Br      -0.3760170151    0.2101238516   -0.6234367537
H       -1.0667954685   -0.8578503905    2.3048077906
H        1.1347928715   -5.4929191684    0.9215503417
H        0.1780622713   -5.3849779985    2.4034285025
H       -0.9136016851   -5.8638761931   -0.2887266496
H       -1.7879903280   -5.7472586000    1.0871866004
13   
Generated by ForceBalance from scan.xyz: Frame 24 of 24
C       -1.7486601471   -1.6341893934    1.7782631763
C       -1.8204519661   -1.4398099863    0.4265130583
C       -0.7265906498   -3.4965745832    1.1263271667
C        0.0401691434   -4.7859133700    1.2148766983
N       -1.1235493684   -2.8020425503    2.1587893933
N       -0.5752386669   -5.8198105342    0.3728194367
S       -1.0939434499   -2.7684895058   -0.4313617643
Br      -2.6198476501    0.0174796265   -0.4745125291
H       -2.1421338012   -0.9569334973    2.5275482908
H        1.0563965267   -4.6180400420    0.8383099212
H        0.1339992953   -5.0208494950    2.2850341977
H       -1.4670643375   -6.1080431758    0.7720932200
H        0.0217347493   -6.6439498415    0.3430855102
