19   
Generated by ForceBalance from scan.xyz: Frame 1 of 24
C        2.7128352887   -4.1464361079   -0.7161016155
C        4.5524099864   -2.9468302989   -0.2998499395
C        4.1377813492   -4.2005993106   -0.6900741188
C        1.4501505282    1.3223835938    0.6096709972
C        1.7595587590   -0.1731352842    0.6587781889
N        2.2683705039   -2.9453450578   -0.3757449547
N        3.3881146187   -2.2318489670   -0.0550526487
O        4.4663265148   -0.0130847798    0.5467265255
O        3.1562868794   -0.1357308683   -1.6218851073
O        4.8539321941   -5.3253221237   -0.9843636993
S        3.3116069542   -0.4927381258   -0.2137002044
H        2.0225547326   -4.9436674685   -0.9634333043
H        5.5265929923   -2.5129047408   -0.1217383701
H        2.2357252573    1.9095534505    1.0919006785
H        1.3326102092    1.6665152499   -0.4203752930
H        0.5122611851    1.5030960206    1.1423812961
H        1.0080268648   -0.7839319731    0.1575036866
H        1.9111620957   -0.5410629398    1.6757715293
H        5.8012954300   -5.1184870066   -0.9668950479
19   
Generated by ForceBalance from scan.xyz: Frame 2 of 24
C        2.6647699883   -4.2013991881   -0.8211965275
C        4.4621294692   -2.9749278566   -0.3011347072
C        4.0777786254   -4.2535222706   -0.6461326154
C        1.3879412950    1.2674942915    0.6647019285
C        1.7248155108   -0.2224653070    0.6589883092
N        2.1967357235   -2.9772674804   -0.6096764318
N        3.2850277112   -2.2470008973   -0.2458118342
O        4.4116429724   -0.0619166724    0.3439488043
O        2.9343944806   -0.1082987401   -1.7225468126
O        4.8150337792   -5.3948263053   -0.7912919732
S        3.2010726477   -0.5105322686   -0.3453645168
H        1.9962802796   -5.0120466145   -1.0836472054
H        5.4145504466   -2.5257224238   -0.0572877813
H        2.2012940541    1.8589765650    1.0927219294
H        1.1816837429    1.6281219504   -0.3455227936
H        0.4941935848    1.4230212850    1.2755665797
H        0.9426037069   -0.8362439084    0.2088941183
H        1.9657398292   -0.6070084960    1.6523345922
H        5.7558776233   -5.1867364937   -0.6821354690
19   
Generated by ForceBalance from scan.xyz: Frame 3 of 24
C        2.6776755305   -4.1961805927   -0.8962226658
C        4.4353198807   -2.9467201718   -0.2984900605
C        4.0655877261   -4.2456517788   -0.5842616481
C        1.3998900482    1.2423559815    0.7435875028
C        1.7529173866   -0.2411738042    0.6563987921
N        2.2088489448   -2.9546912708   -0.8186182925
N        3.2735584400   -2.2087490891   -0.4325316635
O        4.4082232612   -0.0416062188    0.1843647800
O        2.8036147722   -0.0270563543   -1.7911390476
O        4.7998763243   -5.3989998925   -0.5782277920
S        3.1637001200   -0.4752883078   -0.4516060601
H        2.0247280996   -5.0177557993   -1.1633281803
H        5.3678255357   -2.4841625079   -0.0080738757
H        2.2326850084    1.8276281830    1.1417834108
H        1.1251506104    1.6389123933   -0.2363881814
H        0.5457140776    1.3621097791    1.4160944587
H        0.9490987513   -0.8466551007    0.2328652861
H        2.0611856908   -0.6617191800    1.6160835653
H        5.7292755357   -5.1880359248   -0.3994011351
19   
Generated by ForceBalance from scan.xyz: Frame 4 of 24
C        2.6828690165   -4.1890048679   -0.9626164084
C        4.4090854176   -2.9266023387   -0.3033364910
C        4.0355426330   -4.2376536071   -0.5236243881
C        1.4450512252    1.1977253521    0.8105513596
C        1.8000826151   -0.2770749234    0.6323858988
N        2.2379822977   -2.9369400072   -1.0202939550
N        3.2893156324   -2.1813550934   -0.6217812499
O        4.4148818425   -0.0177006002    0.0164792385
O        2.6974538120    0.0247855870   -1.8665221845
O        4.7425117436   -5.3983871479   -0.3722566569
S        3.1454293845   -0.4534526656   -0.5660137412
H        2.0377015352   -5.0169624518   -1.2287933814
H        5.3252310206   -2.4572951174    0.0254279444
H        2.2971618550    1.7697878193    1.1863072735
H        1.1109157650    1.6375996057   -0.1318103600
H        0.6311918373    1.2793577995    1.5367492912
H        0.9751611525   -0.8674977529    0.2281815404
H        2.1648694677   -0.7396450918    1.5523188533
H        5.6547521421   -5.1889889197   -0.1188941443
19   
Generated by ForceBalance from scan.xyz: Frame 5 of 24
C        2.6933729683   -4.1831432748   -1.0337240704
C        4.3759038712   -2.9034204543   -0.3002119442
C        4.0000288925   -4.2207516090   -0.4698135220
C        1.4936811733    1.1166653419    0.9060261671
C        1.8413783288   -0.3438790693    0.6249188144
N        2.2794903807   -2.9326208698   -1.2126979337
N        3.3138599888   -2.1644672085   -0.7904434961
O        4.3975514969    0.0164268818   -0.1367898732
O        2.5692074485    0.0462807938   -1.9175362179
O        4.6716422642   -5.3782125394   -0.1899615147
S        3.1128855335   -0.4468320845   -0.6613527567
H        2.0610686157   -5.0185423891   -1.3076326368
H        5.2709178438   -2.4259453596    0.0722061223
H        2.3667809791    1.6720145261    1.2575098275
H        1.0992848038    1.6053717528    0.0120949859
H        0.7266999248    1.1539325263    1.6850212046
H        0.9945153250   -0.9154257688    0.2392534738
H        2.2615857298   -0.8534230576    1.4953045507
H        5.5551942101   -5.1643733149    0.1475434219
19   
Generated by ForceBalance from scan.xyz: Frame 6 of 24
C        2.6995387058   -4.1351043698   -1.1030663026
C        4.3359216701   -2.8396969917   -0.2978760035
C        3.9472746500   -4.1575714525   -0.4144955809
C        1.5251212405    1.0577409432    0.9479623596
C        1.8957669291   -0.3826621924    0.5998625957
N        2.3340757555   -2.8942819856   -1.4017932650
N        3.3546693358   -2.1143597982   -0.9562492396
O        4.3741235081    0.1020088206   -0.3045327167
O        2.4457610326    0.0788748743   -1.9799647473
O        4.5616901159   -5.3057449137   -0.0009115285
S        3.0846123049   -0.4095317472   -0.7686082085
H        2.0780389940   -4.9769356200   -1.3825068642
H        5.2097710710   -2.3565588088    0.1158346228
H        2.4034878920    1.6286669604    1.2588109414
H        1.0594073797    1.5598283883    0.0967040751
H        0.8097623514    1.0494748386    1.7754706299
H        1.0413964754   -0.9679935082    0.2531362683
H        2.3865291821   -0.9030098212    1.4258931921
H        5.4152935116   -5.0869776649    0.4040161724
19   
Generated by ForceBalance from scan.xyz: Frame 7 of 24
C        2.7298528907   -4.1043410353   -1.1907066764
C        4.2885777597   -2.8005525096   -0.2588617359
C        3.8932956167   -4.1156550936   -0.3647145247
C        1.5718426271    0.9851428489    1.0027697877
C        1.9846864084   -0.4338128381    0.6160165279
N        2.4215912595   -2.8741735136   -1.5760128752
N        3.4115676164   -2.0862458255   -1.0670526539
O        4.3544127126    0.1800242215   -0.4516234277
O        2.3257982525    0.0652732633   -2.0020681425
O        4.4349123614   -5.2541597078    0.1596588817
S        3.0669497207   -0.3956777981   -0.8399912647
H        2.1291281917   -4.9494234167   -1.5042864043
H        5.1291998722   -2.3175088324    0.2196388615
H        2.4433758996    1.5965557010    1.2488512852
H        1.0178303768    1.4673911149    0.1939755498
H        0.9239370464    0.9387149121    1.8829721701
H        1.1330980234   -1.0570315391    0.3326882352
H        2.5610131215   -0.9328691467    1.3981248566
H        5.2456044451   -5.0332252252    0.6439891417
19   
Generated by ForceBalance from scan.xyz: Frame 8 of 24
C        2.7761950162   -4.1124413117   -1.2945883285
C        4.2239013129   -2.7991100736   -0.2132721584
C        3.8301544234   -4.1118869194   -0.3306978576
C        1.5895067247    0.9284817667    0.9717054785
C        2.1011010515   -0.4679682818    0.6222810046
N        2.5309268849   -2.8925189689   -1.7445726093
N        3.4704730123   -2.0948881484   -1.1506479564
O        4.3273675822    0.2426422175   -0.6455541456
O        2.1984923741   -0.0198499426   -2.0350909887
O        4.2878820402   -5.2403961845    0.2853092562
S        3.0505889014   -0.4134759733   -0.9260095205
H        2.2089233312   -4.9611056075   -1.6573948208
H        5.0169939061   -2.3179029264    0.3429706894
H        2.4170981975    1.6289887847    1.1073278497
H        0.9262032998    1.3105933133    0.1923155374
H        1.0261126424    0.8758459010    1.9079866262
H        1.2898560256   -1.1804463101    0.4520628616
H        2.7856349518   -0.8640020255    1.3745066234
H        5.0414411691   -5.0166000079    0.8534383243
19   
Generated by ForceBalance from scan.xyz: Frame 9 of 24
C        3.1288007381   -3.8706205622   -2.0571680785
C        3.1518140637   -3.2471120733    0.0853632934
C        2.8969894403   -4.3292579770   -0.7253567360
C        1.3778831590    1.0231398583    0.5512104539
C        1.7355900255   -0.4320107046    0.2521712770
N        3.4959027771   -2.5956942973   -2.0744887296
N        3.5822466567   -2.2364437156   -0.7643645846
O        4.3374010532   -0.3020226133    0.7453298657
O        3.5608866017    0.2073134137   -1.6332358852
O        2.5004136606   -5.5632363934   -0.2913653219
S        3.4366301111   -0.5239459742   -0.3837728873
H        3.0407610949   -4.4204556056   -2.9883072874
H        3.1721991842   -3.1502689939    1.1612072389
H        2.0471019466    1.4468338743    1.3038843385
H        1.4283504308    1.6350090674   -0.3523196489
H        0.3555198044    1.0632143637    0.9383423927
H        1.0953999937   -0.8709863417   -0.5173222551
H        1.7147726310   -1.0566868755    1.1461358546
H        2.5143906910   -6.1807675370   -1.0384891611
19   
Generated by ForceBalance from scan.xyz: Frame 10 of 24
C        3.6511741835   -3.9826073802   -1.9740898877
C        2.6387354218   -3.2447753229   -0.1262107518
C        2.9398759870   -4.4015661458   -0.8162367949
C        1.4793727723    1.1689185384    0.7225894684
C        1.7196576385   -0.3179613240    0.4566632777
N        3.7826141778   -2.6580579813   -2.0085632451
N        3.1648918742   -2.2207723398   -0.8911972994
O        4.3808522900   -0.2378398833    0.2960695096
O        3.0446784759    0.1791941703   -1.8274179092
O        2.5859805867   -5.6617943396   -0.4175134721
S        3.2196177879   -0.4969883643   -0.5504938900
H        4.0633381735   -4.5860863186   -2.7752707133
H        2.1237764818   -3.0950136757    0.8098637787
H        2.3186255863    1.6139358528    1.2623156913
H        1.3280199956    1.7154069078   -0.2106679355
H        0.5805821110    1.2747925207    1.3364911669
H        0.9045960451   -0.7753027261   -0.1083090961
H        1.8950502224   -0.8686463792    1.3826970451
H        2.9181306436   -6.3010656672   -1.0661314467
19   
Generated by ForceBalance from scan.xyz: Frame 11 of 24
C        3.8047264367   -4.0068441419   -1.8625593473
C        2.4870582280   -3.2428435887   -0.2292900393
C        2.9048537249   -4.4092511241   -0.8383620663
C        1.5390317374    1.1516169271    0.8184629103
C        1.7533258689   -0.3328007859    0.5161474399
N        3.9390830641   -2.6824713929   -1.8932349865
N        3.1345800442   -2.2287290664   -0.9101135250
O        4.3868762293   -0.1742613887    0.0991434594
O        2.8391368526    0.1471001356   -1.8892462514
O        2.4885966990   -5.6640989531   -0.4847681275
S        3.1580641468   -0.4937570032   -0.6204643718
H        4.3498093860   -4.6214565939   -2.5703307272
H        1.8055160723   -3.0825072335    0.5910060618
H        2.4238425054    1.5904212589    1.2851322213
H        1.3044133356    1.7080797749   -0.0915043290
H        0.6988262725    1.2502984255    1.5113040374
H        0.8890966942   -0.7788464128    0.0192456806
H        2.0104049557   -0.8949040308    1.4162218316
H        2.9312667800   -6.3131194938   -1.0526683689
19   
Generated by ForceBalance from scan.xyz: Frame 12 of 24
C        3.9077134039   -4.0158917086   -1.7668943270
C        2.4050486361   -3.2329348764   -0.3118450380
C        2.8900908720   -4.4061832945   -0.8548347378
C        1.5498470411    1.1442716593    0.8415244281
C        1.7573965630   -0.3373763730    0.5212629728
N        4.0501226923   -2.6920788924   -1.7921308417
N        3.1401736356   -2.2276555567   -0.9121328433
O        4.3420623723   -0.0645437134   -0.1176890336
O        2.6196206120    0.0847265348   -1.9776157570
O        2.4360232498   -5.6571036776   -0.5348776333
S        3.0778553866   -0.4801845286   -0.7137809785
H        4.5332762902   -4.6385886146   -2.3967038799
H        1.6308870167   -3.0642409219    0.4196658148
H        2.4591117715    1.5892605409    1.2515690959
H        1.2518878616    1.7014647290   -0.0493769767
H        0.7548008745    1.2332383835    1.5869408036
H        0.8641131844   -0.7876006832    0.0830923198
H        2.0809588921   -0.9014636030    1.3985752656
H        2.9355711268   -6.3122900618   -1.0456307646
19   
Generated by ForceBalance from scan.xyz: Frame 13 of 24
C        3.9569699664   -4.0753584397   -1.6509480162
C        2.3030806045   -3.2538752464   -0.3948279716
C        2.8317607443   -4.4403117290   -0.8626404901
C        1.5980506313    1.1386182815    0.8338770425
C        1.7756135765   -0.3480459149    0.5191034649
N        4.1216635333   -2.7542833894   -1.6736041262
N        3.1249040110   -2.2669004608   -0.9064308605
O        4.2939535895   -0.0283408257   -0.3471006460
O        2.4143450906   -0.0350447945   -2.0558372354
O        2.3308529512   -5.6815111677   -0.5772706643
S        3.0006595486   -0.5149226597   -0.8085089321
H        4.6451010690   -4.7146971527   -2.1927264774
H        1.4504444014   -3.0643566952    0.2377899131
H        2.5346585617    1.5818786012    1.1788343576
H        1.2466546239    1.6877513399   -0.0426022834
H        0.8527788057    1.2420402586    1.6273419171
H        0.8501442928   -0.7961784095    0.1518755188
H        2.1578371181   -0.9058264981    1.3767651879
H        2.8689145737   -6.3486650855   -1.0301363032
19   
Generated by ForceBalance from scan.xyz: Frame 14 of 24
C        4.0557677621   -4.0761977038   -1.4901983949
C        2.2144203425   -3.2346094147   -0.5490371239
C        2.8115268521   -4.4286753067   -0.8984765576
C        1.6837005482    1.1447042773    0.8949208110
C        1.8428174838   -0.3403610795    0.5662305292
N        4.2272522257   -2.7562092392   -1.5059041989
N        3.1132446012   -2.2559762049   -0.9309406829
O        4.2631192924    0.0194721155   -0.5437521962
O        2.2235850426   -0.0754161893   -2.0601445298
O        2.2693590436   -5.6656327779   -0.6786634487
S        2.9452312001   -0.5072121328   -0.8663925085
H        4.8245136253   -4.7249322720   -1.8953942721
H        1.2593497918   -3.0301708926   -0.0909615733
H        2.6446195208    1.5953083937    1.1522686826
H        1.2495228796    1.6906424085    0.0540548696
H        1.0131819484    1.2442504722    1.7530584440
H        0.8906317467   -0.7945351774    0.2860547079
H        2.3034928440   -0.8992797425    1.3836669842
H        2.8689125893   -6.3388234992   -1.0350905165
19   
Generated by ForceBalance from scan.xyz: Frame 15 of 24
C        4.0709354513   -3.9688900911   -1.0313805677
C        2.0075803253   -3.1241527701   -1.1009474885
C        2.6885610507   -4.3078463961   -0.9318225299
C        1.7834933025    0.9817915445    1.0689591463
C        1.9885916712   -0.4551650824    0.5915414567
N        4.2379029394   -2.6690961002   -1.2403282969
N        2.9794011220   -2.1652101413   -1.3549589256
O        4.0745826133    0.1586277274   -1.0095585782
O        1.7322853839   -0.0196350279   -2.0104483112
O        2.1082785120   -5.5256343617   -0.7108626362
S        2.7543221887   -0.4463993130   -1.0572811413
H        4.9360142356   -4.6194209294   -0.9576926705
H        0.9504029186   -2.9140096142   -1.1749480394
H        2.7360135165    1.5108205443    1.1475105506
H        1.1272058280    1.5323965828    0.3907465617
H        1.3173754045    0.9619771732    2.0584038973
H        1.0469555698   -0.9952369266    0.4844218235
H        2.6634996407   -1.0196294463    1.2400481612
H        2.7900767682   -6.2133175477   -0.7553915790
19   
Generated by ForceBalance from scan.xyz: Frame 16 of 24
C        3.4063753475   -4.2003053581    0.4932601695
C        4.0948274224   -2.6568664864   -0.9679082896
C        3.7667290039   -3.9898221688   -0.8720394145
C        1.4520418650    1.1023832833    0.0842302461
C        1.9888910531   -0.3124043940   -0.1249742504
N        3.5037241296   -3.0831098020    1.1967699177
N        4.0044992157   -2.1541292913    0.3284006103
O        3.5281021974   -0.3187044155    2.0903556733
O        4.5808616429    0.2705352377   -0.1626875204
O        3.7617118027   -4.9774324272   -1.8140404999
S        3.6236217046   -0.4798414579    0.6496340897
H        3.0873238607   -5.1234867821    0.9617505214
H        4.4850591108   -2.0538188537   -1.7766194837
H        1.3360918023    1.3254506032    1.1473645665
H        2.1155326132    1.8463007755   -0.3634524640
H        0.4713559830    1.1838850928   -0.3936477640
H        2.1367138699   -0.5541706912   -1.1789079502
H        1.3560356526   -1.0723173353    0.3408956276
H        4.0949810690   -4.6254237175   -2.6540925247
19   
Generated by ForceBalance from scan.xyz: Frame 17 of 24
C        3.2921144707   -4.1777679848    0.4485820517
C        4.1751941155   -2.6606202087   -0.9356025364
C        3.8274658233   -3.9911937956   -0.8608226454
C        1.4159217565    1.1544285821    0.1350511616
C        1.8952126109   -0.2882632969   -0.0145294700
N        3.3065233466   -3.0488776118    1.1429887596
N        3.9096360892   -2.1391250014    0.3253940436
O        3.6150940278   -0.2356664316    2.0493384920
O        4.4970548707    0.2410535328   -0.3016553486
O        3.9396149399   -4.9948304652   -1.7798690168
S        3.5900394230   -0.4527781396    0.6125123708
H        2.9086028646   -5.0916162135    0.8858048217
H        4.6526138001   -2.0631387508   -1.6998180254
H        1.4093991260    1.4595346727    1.1840978378
H        2.0503994760    1.8416854790   -0.4298164404
H        0.3954292754    1.2311755881   -0.2514705885
H        1.9339912730   -0.6134950789   -1.0564562760
H        1.2968532748   -0.9926340267    0.5683278217
H        4.3745512419   -4.6556536733   -2.5776167113
19   
Generated by ForceBalance from scan.xyz: Frame 18 of 24
C        3.2176803175   -4.2014492377    0.3775120513
C        4.2298207344   -2.7115287877   -0.9489100997
C        3.8951866307   -4.0467422091   -0.8669029950
C        1.4074472461    1.2071783107    0.1934659576
C        1.8265387028   -0.2539387600    0.0424013655
N        3.1371570356   -3.0490218919    1.0316195705
N        3.7975797849   -2.1572831386    0.2462126223
O        3.7022952112   -0.2183700009    1.9535170947
O        4.4240266561    0.1833175651   -0.4639289097
O        4.1281411254   -5.0767084455   -1.7339718499
S        3.5613387253   -0.4603066032    0.5267958834
H        2.8005384917   -5.1071282065    0.8002923532
H        4.7673334417   -2.1236394355   -1.6794398213
H        1.5014200006    1.5370805401    1.2307606022
H        2.0107922551    1.8601102579   -0.4419429494
H        0.3601050861    1.3081937232   -0.1056092350
H        1.7662326282   -0.6050622307   -0.9905862757
H        1.2618113644   -0.9260631897    0.6920601360
H        4.6393787711   -4.7515516055   -2.4911827870
19   
Generated by ForceBalance from scan.xyz: Frame 19 of 24
C        3.1725485892   -4.2296511279    0.3248352221
C        4.2659991900   -2.7643669101   -0.9651735452
C        3.9682566133   -4.1072456667   -0.8493217929
C        1.4111159138    1.2640212393    0.2789982120
C        1.7751725339   -0.2049694771    0.0724767751
N        2.9885637530   -3.0501384077    0.9096649999
N        3.6753471000   -2.1726400404    0.1372329743
O        3.7741250939   -0.2287901575    1.8471476651
O        4.3559217191    0.1370869532   -0.6109855575
O        4.3202678154   -5.1655787007   -1.6399595552
S        3.5305799523   -0.4700440156    0.4332126561
H        2.7412720171   -5.1286733252    0.7473152108
H        4.8462001137   -2.1879897612   -1.6714937471
H        1.5855369870    1.5700113518    1.3131345430
H        1.9878136223    1.9130384674   -0.3846703662
H        0.3492274348    1.4000720586    0.0545763048
H        1.6340565329   -0.5343200554   -0.9597069086
H        1.2380080675   -0.8746272646    0.7474438590
H        4.8949333201   -4.8550862603   -2.3566569076
19   
Generated by ForceBalance from scan.xyz: Frame 20 of 24
C        3.1170649522   -4.2215788132    0.2816259409
C        4.2905481397   -2.7787006481   -0.9629874462
C        4.0230405036   -4.1249448646   -0.8113825114
C        1.4119888918    1.3246858578    0.4216825190
C        1.7290596215   -0.1384004234    0.1189259637
N        2.8386095118   -3.0229481875    0.7862769152
N        3.5542831131   -2.1577424960    0.0284811528
O        3.8350368168   -0.2377405991    1.7609112032
O        4.2791706649    0.1375478240   -0.7207918647
O        4.4778730723   -5.2042864795   -1.5171934282
S        3.4945830256   -0.4563594507    0.3619712235
H        2.6700522014   -5.1144401573    0.7006529015
H        4.9141543359   -2.2139549367   -1.6411042021
H        1.6552810074    1.5727684751    1.4572640271
H        1.9614285078    1.9968467372   -0.2422986122
H        0.3419481607    1.4925406064    0.2692586299
H        1.5225221400   -0.4112732952   -0.9184749238
H        1.2166628030   -0.8321990540    0.7886788125
H        5.1246689582   -4.9085792286   -2.1763106819
19   
Generated by ForceBalance from scan.xyz: Frame 21 of 24
C        3.0739370532   -4.2273008253    0.2304487728
C        4.3079731816   -2.8110938795   -0.9857635629
C        4.0766577862   -4.1559448470   -0.7772815094
C        1.4209450908    1.3492190168    0.4987184662
C        1.6835006145   -0.1085707265    0.1258774338
N        2.7050471844   -3.0149050728    0.6318769151
N        3.4393412701   -2.1635345341   -0.1264634391
O        3.8872596228   -0.2794744924    1.6274440853
O        4.1878153521    0.1291589609   -0.8665950298
O        4.6298442293   -5.2544979895   -1.3744374124
S        3.4523280833   -0.4675852635    0.2489024396
H        2.6198482163   -5.1127759962    0.6575418938
H        4.9660169098   -2.2614192772   -1.6435663622
H        1.7334967442    1.5545055185    1.5250047157
H        1.9439423301    2.0333257706   -0.1744233380
H        0.3478899929    1.5452677709    0.4190929172
H        1.4087508631   -0.3394509426   -0.9056699146
H        1.1973438895   -0.8156483660    0.8010052499
H        5.3309069361   -4.9720034628   -1.9818711074
19   
Generated by ForceBalance from scan.xyz: Frame 22 of 24
C        3.0256507262   -4.2097954226    0.1718588405
C        4.3317037961   -2.8233026120   -1.0015977559
C        4.1231250567   -4.1601504495   -0.7353510639
C        1.4455098311    1.3644945840    0.5851072782
C        1.6543103857   -0.0835325368    0.1456776867
N        2.5825768302   -2.9922576572    0.4609756840
N        3.3466758527   -2.1562346643   -0.2922141853
O        3.9508660526   -0.3316092010    1.4919278988
O        4.1000531511    0.1515419997   -0.9978646132
O        4.7626316035   -5.2712135744   -1.2083835589
S        3.4209533748   -0.4708455282    0.1393869522
H        2.5578370170   -5.0861350458    0.6032382316
H        5.0302076622   -2.2914912154   -1.6321721653
H        1.8282020173    1.5282057868    1.5949949252
H        1.9360718435    2.0634194633   -0.0971420644
H        0.3734439925    1.5808356092    0.5832391458
H        1.3087149943   -0.2720617651   -0.8729882817
H        1.2005369806   -0.8066390111    0.8256649616
H        5.5104208881   -5.0007784888   -1.7634330015
19   
Generated by ForceBalance from scan.xyz: Frame 23 of 24
C        2.9733804848   -4.1840759069    0.0852676182
C        4.3726071038   -2.8399774873   -1.0256873958
C        4.1610357150   -4.1621165220   -0.7040143555
C        1.4988235513    1.3617320261    0.6366683007
C        1.6531041373   -0.0809734792    0.1577698574
N        2.4825440518   -2.9645206542    0.2526497959
N        3.2969569588   -2.1511205496   -0.4825363235
O        4.0456111197   -0.3839833992    1.3118327993
O        4.0118489392    0.1891769674   -1.1589480870
O        4.8620347141   -5.2845212594   -1.0406230144
S        3.4114596378   -0.4747076842   -0.0011949240
H        2.4778708580   -5.0455290297    0.5160908920
H        5.1246768324   -2.3338829869   -1.6150006786
H        1.9643144539    1.5040240118    1.6145656052
H        1.9397610909    2.0676881596   -0.0716227099
H        0.4326500139    1.5882371497    0.7263192084
H        1.2218640202   -0.2470996023   -0.8317165292
H        1.2500708212   -0.8119479794    0.8595151125
H        5.6651843004   -5.0311669807   -1.5216051715
19   
Generated by ForceBalance from scan.xyz: Frame 24 of 24
C        2.8598437708   -4.1568178727   -0.0503013060
C        4.4161534972   -2.8434609589   -0.9691249257
C        4.1451274055   -4.1590241650   -0.6679454078
C        1.5023709846    1.3560642229    0.6565262179
C        1.6431299869   -0.1158358452    0.2686931461
N        2.3678486889   -2.9297312829    0.0359935400
N        3.2843532751   -2.1327683579   -0.5936593818
O        4.1390870829   -0.4031557253    1.1850894996
O        3.8663059281    0.2690675335   -1.2416529487
O        4.8701564910   -5.2934249005   -0.8937768626
S        3.3877606999   -0.4619434535   -0.0685520387
H        2.2970869818   -5.0069646208    0.3155524838
H        5.2529364358   -2.3576308155   -1.4521717198
H        2.0773800310    1.5850519645    1.5568499790
H        1.8302575259    2.0153518981   -0.1507451703
H        0.4480156947    1.5619745502    0.8615360236
H        1.0993999262   -0.3666660183   -0.6442606624
H        1.3509963318   -0.8003267021    1.0641750687
H        5.7347759179   -5.0556943664   -1.2633334203
