19   
Generated by ForceBalance from scan.xyz: Frame 1 of 24
C        4.4402973407    1.3759181766   -0.0391481970
C        3.6605660275    0.4405468641    0.7245199378
C        4.5840202475    0.8249859058   -1.2804916776
C        3.3756356831   -0.6029227786   -0.1103184500
C        1.2911031582   -1.8129833101    0.2457501745
C        0.5342510401   -0.5368025094   -0.0789023862
C        3.4333415195   -3.0231016700    0.3070328876
N        2.6691737146   -1.7924518616    0.0550980733
O        0.7259844405   -2.8209221939    0.6565054107
O        3.9399606618   -0.3791202361   -1.3493432252
H        4.8453098687    2.3224540655    0.2936925788
H        3.3515662208    0.5241629527    1.7579821714
H        5.0908531297    1.1408573722   -2.1812570581
H        0.5378185715    0.1311897518    0.7878527037
H       -0.4988614498   -0.8120108615   -0.2950481398
H        0.9636288669    0.0072761097   -0.9228075022
H        2.8132364589   -3.8808321595    0.0476250727
H        3.7205408690   -3.1007184577    1.3616747797
H        4.3310087962   -3.0116427918   -0.3141539748
19   
Generated by ForceBalance from scan.xyz: Frame 2 of 24
C        4.4235797026    1.4430215880   -0.0514441061
C        3.5607471530    0.4965969586    0.6020237545
C        4.7298026319    0.9026789639   -1.2671502047
C        3.3918218899   -0.5410574999   -0.2719710854
C        1.3353487531   -1.7540149685    0.1549718287
C        0.5103142795   -0.5284196683   -0.1963745049
C        3.4617258647   -2.9631791376    0.0426774900
N        2.6811590128   -1.7399521321   -0.2111597156
O        0.8490040327   -2.7222774521    0.7285497530
O        4.1037025198   -0.3043482880   -1.4262493759
H        4.7761777409    2.3891641608    0.3374300739
H        3.1281315673    0.5683678962    1.5909587599
H        5.3484924191    1.2241941612   -2.0926873119
H        0.3986870901    0.1072824610    0.6870963763
H       -0.4847785311   -0.8753640854   -0.4822560290
H        0.9454499542    0.0693326541   -0.9987434228
H        2.8716032533   -3.8289144453   -0.2577354038
H        3.7129227840   -3.0603972447    1.1047132708
H        4.3771572481   -2.9161673916   -0.5492312261
19   
Generated by ForceBalance from scan.xyz: Frame 3 of 24
C        4.3699300714    1.4698162696   -0.0110270062
C        3.4544092307    0.5500262457    0.6084724483
C        4.7148483862    0.9154827083   -1.2096611563
C        3.2973765539   -0.4869990425   -0.2693995815
C        1.2489741601   -1.6110515047    0.2957678152
C        0.3765571831   -0.4515155867   -0.1497140054
C        3.3111307584   -2.8947635631    0.0432964419
N        2.5456850599   -1.6641258411   -0.2380513530
O        0.8482052083   -2.4649227858    1.0761595572
O        4.0620846167   -0.2750417460   -1.3923416082
H        4.7317124793    2.4074071357    0.3899356561
H        2.9838159293    0.6357313134    1.5787934887
H        5.3805129723    1.2138211913   -2.0067588468
H        0.1551110340    0.1915989259    0.7064128344
H       -0.5721116277   -0.8716680804   -0.4950600010
H        0.8243896609    0.1479526451   -0.9428431330
H        2.6874750895   -3.7595980793   -0.1842988868
H        3.6143285838   -2.9458053994    1.0946911823
H        4.1941740752   -2.9006046876   -0.5975745507
19   
Generated by ForceBalance from scan.xyz: Frame 4 of 24
C        4.4030273040    1.4025863479    0.0380419842
C        3.4495342669    0.4915181029    0.6125858205
C        4.7682864788    0.8663277161   -1.1624300399
C        3.2946110855   -0.5226322394   -0.2928015135
C        1.2584799147   -1.5776072432    0.3479671680
C        0.3120885653   -0.5258163715   -0.1959001400
C        3.2610638143   -2.9208646260   -0.0273404060
N        2.5073528168   -1.6791013280   -0.3111065503
O        0.9702562162   -2.2984403149    1.2913662438
O        4.0924849887   -0.3046960155   -1.3897404915
H        4.7754587322    2.3223515269    0.4694400288
H        2.9567492984    0.5646534653    1.5728833806
H        5.4644816727    1.1638822710   -1.9332349680
H       -0.1310640616    0.0343271564    0.6302418111
H       -0.4990992990   -1.0517686886   -0.7111989282
H        0.7899088474    0.1559395717   -0.8999183057
H        2.6100310251   -3.7780196144   -0.2045136282
H        3.6139568635   -2.9515204581    1.0089443413
H        4.1107614287   -2.9637400758   -0.7105885066
19   
Generated by ForceBalance from scan.xyz: Frame 5 of 24
C        4.4375253898    1.2978451430    0.0719877309
C        3.4497684701    0.4205173771    0.6426307761
C        4.7889460516    0.7503991379   -1.1270926953
C        3.2640183524   -0.5872838732   -0.2649852716
C        1.2354108138   -1.5426497947    0.4765248199
C        0.2042544584   -0.6341322940   -0.1548690572
C        3.1529565622   -2.9747709503   -0.0134051276
N        2.4286778444   -1.7112551121   -0.2957928612
O        1.0842056776   -2.0816678358    1.5592510456
O        4.0715515562   -0.3959156208   -1.3590931685
H        4.8407914380    2.2032855271    0.5060507268
H        2.9596039384    0.5073289592    1.6029424969
H        5.4999595615    1.0221716761   -1.8938458790
H       -0.4142621821   -0.1751102733    0.6178101205
H       -0.4388351405   -1.2500224333   -0.7945859254
H        0.6648142463    0.1289224188   -0.7848880584
H        2.4647189363   -3.8124238983   -0.1415182337
H        3.5570253030   -2.9954517537    1.0040927143
H        3.9643125724   -3.0658629129   -0.7374051014
19   
Generated by ForceBalance from scan.xyz: Frame 6 of 24
C        4.5366217472    1.3106048176    0.0743017214
C        3.5149038722    0.4557400014    0.6207344425
C        4.9127734538    0.7514359809   -1.1109295924
C        3.3361085531   -0.5524138606   -0.2890781818
C        1.3147941638   -1.4596182774    0.4945862500
C        0.1774640367   -0.7383983561   -0.1851670335
C        3.1646985130   -2.9418854361   -0.1059823736
N        2.4695623452   -1.6524512705   -0.3570668957
O        1.3001325900   -1.8170612380    1.6567477432
O        4.1777579199   -0.3822506144   -1.3596187419
H        4.9451435442    2.2096197652    0.5168418365
H        3.0030186408    0.5550486223    1.5678401175
H        5.6517492531    1.0035505672   -1.8575800087
H       -0.5482347011   -0.3903579235    0.5508946410
H       -0.3102517178   -1.4309740586   -0.8806588452
H        0.5571478516    0.0968802117   -0.7796480525
H        2.4533851238   -3.7588214115   -0.2487555400
H        3.5799291842   -2.9950234378    0.9059364558
H        3.9643397404   -3.0410398918   -0.8417026072
19   
Generated by ForceBalance from scan.xyz: Frame 7 of 24
C        4.9132625403    1.2334557165    0.3181602469
C        4.2503342914    0.2282318863    1.1053046631
C        4.5300092043    1.0219501785   -0.9745330141
C        3.5090525345   -0.5198856944    0.2396180079
C        1.2437760439   -1.2188467376    0.4351618055
C        0.3993171917   -1.6068112888   -0.7642319094
C        2.9958330998   -2.7899250638   -0.3776780700
N        2.6368425293   -1.6020545644    0.4197235057
O        0.7746951886   -0.6678998086    1.4102746123
O        3.6661802779   -0.0376871498   -1.0520033151
H        5.5871667510    2.0045530518    0.6675805244
H        4.2997442729    0.0769068069    2.1745704833
H        4.7739798095    1.5014113274   -1.9120348832
H       -0.5864991725   -1.1538570815   -0.6577754090
H        0.2830727373   -2.6932242325   -0.8266819075
H        0.8707137202   -1.2722215725   -1.6936806147
H        2.3810785214   -3.6371251956   -0.0636203842
H        4.0387988761   -3.0310838764   -0.1608460427
H        2.8906595468   -2.6468596752   -1.4603248398
19   
Generated by ForceBalance from scan.xyz: Frame 8 of 24
C        4.6132865985    1.4440026874    0.5201475682
C        3.5052665959    0.6958170387    1.0558526279
C        5.0615933141    0.7641340010   -0.5712389090
C        3.3512493231   -0.3814872236    0.2269103462
C        1.0776948849   -1.0947056076    0.4459818982
C        0.0506968447   -1.5124978766   -0.5910709337
C        2.7214854646   -2.5021071064   -0.7832613683
N        2.4345891325   -1.4472596766    0.1985543437
O        0.7530988879   -0.5720785436    1.4980635950
O        4.2870590270   -0.3646906482   -0.7706954889
H        5.0293469981    2.3619623092    0.9145561829
H        2.9061117321    0.9104482771    1.9277116566
H        5.8694468288    0.9023414759   -1.2740844131
H       -0.8791022764   -0.9873098658   -0.3718202817
H       -0.1421930879   -2.5885931229   -0.5319839559
H        0.3787495846   -1.2873958552   -1.6099638026
H        2.0522148283   -3.3443768379   -0.6067460719
H        3.7452304422   -2.8462509071   -0.6294230579
H        2.6250142327   -2.1697921262   -1.8239662147
19   
Generated by ForceBalance from scan.xyz: Frame 9 of 24
C        4.6753246164    1.4317582566    0.5562875050
C        3.4824222682    0.7554235995    0.9963315134
C        5.1869772269    0.7070568058   -0.4764876452
C        3.3524004101   -0.3317934445    0.1748525853
C        1.0643265668   -1.0374727391    0.3844392375
C       -0.0205389681   -1.6507039015   -0.4844856898
C        2.6933245803   -2.4100675836   -0.9128099199
N        2.3990591991   -1.3592169378    0.0709227728
O        0.7904903495   -0.3805732291    1.3788202045
O        4.3786186233   -0.3865225597   -0.7274102920
H        5.0992033523    2.3366736548    0.9719179431
H        2.8166057818    1.0192756650    1.8026988450
H        6.0581785837    0.7931602803   -1.1083126269
H       -0.9506891346   -1.1267381943   -0.2640094534
H       -0.1605148467   -2.7088682286   -0.2391203752
H        0.2035349259   -1.5792054688   -1.5524012303
H        2.0136877528   -3.2472023403   -0.7585000123
H        3.7110747286   -2.7652149744   -0.7488306361
H        2.6139862263   -2.0604202310   -1.9489765814
19   
Generated by ForceBalance from scan.xyz: Frame 10 of 24
C        4.7121591880    1.4058299595    0.6582994319
C        3.4566070403    0.7864104001    0.9951928673
C        5.2755505556    0.6564577795   -0.3286580020
C        3.3479535929   -0.2991609934    0.1668555778
C        1.0548366822   -1.0154560284    0.3390380100
C       -0.0389619108   -1.7866470916   -0.3813702120
C        2.6942492166   -2.3520256510   -0.9912005126
N        2.3757960967   -1.2935989580   -0.0242224633
O        0.7924726677   -0.2434192292    1.2541514956
O        4.4450124559   -0.4014921198   -0.6448743437
H        5.1381750475    2.2933659837    1.1078022939
H        2.7365344753    1.0869490793    1.7383487998
H        6.1970484877    0.7053223488   -0.8891341017
H       -0.9867585321   -1.3089612256   -0.1333803011
H       -0.0787109776   -2.8245609579   -0.0335494884
H        0.0949459798   -1.7988002975   -1.4666668515
H        2.0146819865   -3.1901898369   -0.8485415691
H        3.7097327780   -2.7032385632   -0.8081692481
H        2.6315124363   -2.0030631593   -2.0284748633
19   
Generated by ForceBalance from scan.xyz: Frame 11 of 24
C        4.7273861504    1.3683242591    0.6955068298
C        3.4174937796    0.8225532315    0.9385086442
C        5.3215526531    0.5808031906   -0.2422765879
C        3.3139751747   -0.2677297952    0.1139967487
C        1.0155456551   -0.9832211850    0.2839079215
C       -0.0749342308   -1.8817315147   -0.2777063904
C        2.6533093216   -2.2999921952   -1.0823400218
N        2.3176970977   -1.2195328103   -0.1466462605
O        0.7579508059   -0.1126322658    1.1097344091
O        4.4620472086   -0.4339734856   -0.6137016802
H        5.1642524403    2.2380134874    1.1688338119
H        2.6603993197    1.1734338364    1.6192449375
H        6.2823650707    0.5771595953   -0.7347685088
H       -1.0292577318   -1.4638000298    0.0419229154
H        0.0058823792   -2.8996737065    0.1184677863
H       -0.0510870439   -1.9408537303   -1.3697306528
H        1.9496299986   -3.1204735083   -0.9631636462
H        3.6525673266   -2.6727961958   -0.8571717739
H        2.6386191670   -1.9565831938   -2.1228200684
19   
Generated by ForceBalance from scan.xyz: Frame 12 of 24
C        4.7379276684    1.3866501137    0.6937416382
C        3.3758924081    0.9370622818    0.8153900588
C        5.3754172994    0.5142178012   -0.1340876203
C        3.2894814077   -0.1910906302    0.0403493070
C        1.0052843733   -0.9425973568    0.2568817937
C       -0.0585435976   -1.9615413654   -0.1231852194
C        2.6447611233   -2.1979518040   -1.1882305620
N        2.2757787173   -1.1046964218   -0.2809725555
O        0.7427241505   -0.0116442488    1.0138120289
O        4.4962304341   -0.4662452762   -0.5467060252
H        5.1776399410    2.2541235615    1.1684844863
H        2.5746828270    1.3739256030    1.3865590741
H        6.3798114012    0.4284649330   -0.5208677410
H       -0.9744656340   -1.6663530413    0.3879090934
H        0.2111029825   -2.9743177472    0.1928109423
H       -0.2460003006   -1.9794544513   -1.2014213518
H        1.7851701374   -2.8363799039   -1.3662440273
H        3.4474269518   -2.7999888144   -0.7540019813
H        2.9917715076   -1.7988749591   -2.1451086227
19   
Generated by ForceBalance from scan.xyz: Frame 13 of 24
C        4.7497748937    1.3789630188    0.7089098249
C        3.3595069926    1.0048406478    0.7068310430
C        5.4161325959    0.4470817661   -0.0260452082
C        3.2881350173   -0.1450771290   -0.0360314556
C        1.0231320424   -0.9356952535    0.2276964968
C        0.0492982087   -2.0817111331    0.0035968108
C        2.6133160078   -2.1349212881   -1.2939580363
N        2.2554524996   -1.0157430646   -0.4135153705
O        0.7158958133    0.0330155647    0.9158617313
O        4.5286096688   -0.5021676683   -0.4929550831
H        5.1876547216    2.2401532464    1.1966274156
H        2.5297984519    1.5047475873    1.1773107036
H        6.4462688409    0.2989451686   -0.3134471267
H       -0.7845232544   -1.9310820801    0.6888840633
H        0.5012396930   -3.0603515344    0.1898440638
H       -0.3403472468   -2.0780532341   -1.0200235985
H        1.7174947280   -2.5309540581   -1.7665809908
H        3.1205133871   -2.9374269294   -0.7465703465
H        3.2815439590   -1.7766880333   -2.0768765138
19   
Generated by ForceBalance from scan.xyz: Frame 14 of 24
C        4.7429496693    1.3346222407    0.7481747636
C        3.3377980883    1.0406424564    0.6354721172
C        5.4110791989    0.3561126414    0.0779720666
C        3.2612785014   -0.1158234889   -0.0947212807
C        0.9970668472   -0.8950218679    0.1654414051
C        0.1169774069   -2.1318949301    0.0899583067
C        2.5631504938   -2.0731596645   -1.3845915411
N        2.2055823881   -0.9287953464   -0.5364626984
O        0.6251046349    0.1162779567    0.7495778817
O        4.5101109373   -0.5491736569   -0.4490351807
H        5.1897432086    2.1776813773    1.2589489190
H        2.5012352238    1.5953018637    1.0274130684
H        6.4503808690    0.1481265009   -0.1276277397
H       -0.6634855887   -2.0183684398    0.8422811353
H        0.6703174384   -3.0579039532    0.2695966629
H       -0.3636666643   -2.2096640203   -0.8912444332
H        1.6709650358   -2.4486542814   -1.8822671476
H        3.0331534559   -2.8839848520   -0.8159880024
H        3.2639788916   -1.7397309837   -2.1499144177
19   
Generated by ForceBalance from scan.xyz: Frame 15 of 24
C        4.7654266740    1.2304794240    0.8116090574
C        3.3550887404    1.0281123970    0.6015711759
C        5.4121141739    0.2037034423    0.1942535053
C        3.2536731272   -0.1291833613   -0.1223476539
C        0.9810407746   -0.8659440786    0.1400638278
C        0.2130734418   -2.1732864407    0.2354863791
C        2.5102827905   -2.0341929647   -1.4465856850
N        2.1671442991   -0.8695366718   -0.6192539958
O        0.5357811343    0.1715344761    0.6098568812
O        4.4909608631   -0.6483648639   -0.3868398754
H        5.2313242915    2.0483161115    1.3458134347
H        2.5305692776    1.6433068114    0.9253644326
H        6.4472299957   -0.0708618751    0.0572416106
H       -0.5256126860   -2.0609447459    1.0292506885
H        0.8603369032   -3.0288640212    0.4471284660
H       -0.3208615420   -2.3767896106   -0.6988665323
H        1.6120569940   -2.4000211953   -1.9423715422
H        2.9678631849   -2.8477192833   -0.8712868877
H        3.2169330772   -1.7193034444   -2.2149475457
19   
Generated by ForceBalance from scan.xyz: Frame 16 of 24
C        4.7292740317    1.1873544301    0.8511460883
C        3.3346240529    1.0763355932    0.5091546780
C        5.3535683378    0.0932117768    0.3336921581
C        3.2155714730   -0.0997954478   -0.1789584220
C        0.9517523411   -0.8337018532    0.0789894041
C        0.3648365846   -2.2059030535    0.3574513322
C        2.4473836640   -1.9357607245   -1.5763265872
N        2.1163097096   -0.7753618458   -0.7376929261
O        0.3993006126    0.1885566397    0.4465204416
O        4.4303923167   -0.7179895656   -0.3004318067
H        5.2029565201    1.9927978663    1.3971959393
H        2.5295351599    1.7602967705    0.7313992494
H        6.3760191230   -0.2518759169    0.2978044482
H       -0.3745830354   -2.0993112638    1.1513419191
H        1.1312744266   -2.9288560877    0.6514883841
H       -0.1406060808   -2.5980155586   -0.5310712526
H        1.5471137943   -2.2710851872   -2.0919478611
H        2.8807864110   -2.7724323772   -1.0152670487
H        3.1704529477   -1.6199985702   -2.3297271165
19   
Generated by ForceBalance from scan.xyz: Frame 17 of 24
C        4.9758519978    1.0424390176    0.6092497564
C        3.7812824086    1.1810279815   -0.1802827297
C        5.1135444723   -0.2911330820    0.8647826938
C        3.2749444868   -0.0737661414   -0.3464859116
C        1.0339804143   -0.8248374822   -0.0755091657
C        0.6826957510   -2.2760830999    0.1939379411
C        2.4090934693   -1.5876613680   -2.0060250053
N        2.1265179150   -0.5624104057   -0.9840095846
O        0.3937537687    0.0964200711    0.3890708751
O        4.0852021003   -0.9967767206    0.2994678314
H        5.6430561080    1.8287404178    0.9369674109
H        3.3394400980    2.0874796016   -0.5698766487
H        5.8519360602   -0.8759279711    1.3949916313
H       -0.0751901990   -2.3118299482    0.9766686190
H        1.5700441873   -2.8385338554    0.5010247624
H        0.2836698765   -2.7558556219   -0.7051157740
H        1.4989682072   -1.7932576606   -2.5750204473
H        2.8012480440   -2.5270641362   -1.5968845845
H        3.1506092600   -1.1743117993   -2.6932103839
19   
Generated by ForceBalance from scan.xyz: Frame 18 of 24
C        4.7566324931    0.7450806339    0.8724025675
C        3.3901555698    0.6167094746    0.4371655448
C        5.3952854192   -0.3917447218    0.4738496872
C        3.3001344604   -0.6025350454   -0.1803841042
C        0.9646818021   -0.8428626532   -0.2831322697
C        0.5052300156   -1.5325278875    0.9773868656
C        2.3287091811   -1.3377486237   -2.2512614918
N        2.2450051856   -1.3150692458   -0.7677863225
O        0.3553187225    0.0544900225   -0.8325399445
O        4.5168271142   -1.2372868680   -0.1588790812
H        5.2024638246    1.5806787347    1.3958339488
H        2.5906600089    1.3372195261    0.5399758992
H        6.4151433218   -0.7415859172    0.5421110543
H       -0.3123974353   -0.9780688213    1.4396061685
H        1.3391356178   -1.6461042686    1.6751621026
H        0.1633231837   -2.5414246400    0.7196585634
H        1.5245311922   -1.9670967766   -2.6398099687
H        3.2860934525   -1.7828422348   -2.5268836022
H        2.2454672524   -0.3349893402   -2.6834967580
19   
Generated by ForceBalance from scan.xyz: Frame 19 of 24
C        4.6692498920    0.7069988239    0.9061120155
C        3.3138435155    0.6018655147    0.4340759554
C        5.2978136406   -0.4420655703    0.5246152032
C        3.2184135663   -0.6151014433   -0.1854541649
C        0.8792139539   -0.9113550854   -0.3195685456
C        0.5467165928   -1.4587097492    1.0505470147
C        2.2714872771   -1.2740754436   -2.2938343742
N        2.1667349013   -1.2939094103   -0.8141529329
O        0.1300337011   -0.1906235839   -0.9559383958
O        4.4236443416   -1.2711052789   -0.1319211696
H        5.1157281794    1.5343882516    1.4417792973
H        2.5222937061    1.3341914060    0.5186072292
H        6.3093237601   -0.8091085267    0.6217598976
H       -0.1594559106   -0.7987832621    1.5566274654
H        1.4411960384   -1.6062499537    1.6583503663
H        0.0716407496   -2.4374666065    0.9146696437
H        1.4754499144   -1.8927843288   -2.7125023305
H        3.2372225807   -1.7018273793   -2.5679711323
H        2.1854928554   -0.2592229416   -2.6959432815
19   
Generated by ForceBalance from scan.xyz: Frame 20 of 24
C        4.6856627030    0.7041682296    1.0223006736
C        3.3478691786    0.5993875376    0.5040106384
C        5.3318593435   -0.4372258710    0.6458069070
C        3.2778962097   -0.6086669632   -0.1346983805
C        0.9435646553   -1.0334957146   -0.3350673356
C        0.6902163404   -1.4262781208    1.1069041429
C        2.3911207980   -1.2380766700   -2.2889696553
N        2.2531889873   -1.2747192033   -0.8158230050
O        0.0792414882   -0.5432261784   -1.0458651582
O        4.4850888029   -1.2592162751   -0.0520656404
H        5.1099530697    1.5254904896    1.5846008094
H        2.5489350322    1.3251733515    0.5768111481
H        6.3407861638   -0.8019968218    0.7737609742
H        0.1414484829   -0.6304786708    1.6150296987
H        1.6042652384   -1.6614591119    1.6527379891
H        0.0490889774   -2.3145384772    1.0954054601
H        1.6421977252   -1.8967685818   -2.7307585507
H        3.3882503526   -1.6005713183   -2.5438708347
H        2.2502575954   -0.2260058028   -2.6829506156
19   
Generated by ForceBalance from scan.xyz: Frame 21 of 24
C        4.6982999472    0.6749857056    1.1046181036
C        3.3711952901    0.6175650321    0.5536771701
C        5.3214262062   -0.4766881292    0.7195541938
C        3.2812942563   -0.5749772164   -0.1100424154
C        0.9466240656   -1.0954141862   -0.3499203603
C        0.7490569916   -1.3401159023    1.1350702396
C        2.4122885289   -1.1522521353   -2.3024655421
N        2.2597888564   -1.1941114224   -0.8345785725
O        0.0126338522   -0.8310611753   -1.0959570689
O        4.4697657420   -1.2596440142   -0.0144372027
H        5.1313585598    1.4725669634    1.6937358502
H        2.5904890530    1.3628736937    0.6266514510
H        6.3158595247   -0.8731058120    0.8659053429
H        0.4024771352   -0.4212415293    1.6158290787
H        1.6492663764   -1.6919708015    1.6398493065
H       -0.0471367006   -2.0823443675    1.2396271903
H        1.7056757185   -1.8503448256   -2.7519516609
H        3.4318727041   -1.4536286711   -2.5476262240
H        2.2159282536   -0.1492261465   -2.6965755898
19   
Generated by ForceBalance from scan.xyz: Frame 22 of 24
C        4.5426831152    1.3894689126   -0.0445755527
C        3.8892507729    0.4380188744    0.8122345816
C        4.3412602511    0.9512727533   -1.3223062335
C        3.3409979581   -0.5103138984   -0.0032686787
C        1.3112938378   -1.7971384225   -0.2337368565
C        0.5338222004   -0.5029553695   -0.3815973189
C        3.3935258028   -2.9306587291    0.3564884629
N        2.6199634763   -1.6791925581    0.2524749876
O        0.8432523709   -2.8889611003   -0.5293307259
O        3.6168374385   -0.2083957394   -1.3232821311
H        5.0816352950    2.2802302230    0.2500224427
H        3.8225971409    0.4532848477    1.8918533424
H        4.6288965844    1.3282357358   -2.2935423849
H        0.7700357957    0.2151869960    0.4067993418
H       -0.5301949460   -0.7421376795   -0.3713193257
H        0.7754958070   -0.0385324783   -1.3430083574
H        2.7862187610   -3.6809357224    0.8633178472
H        4.2949541521   -2.7277958157    0.9370869255
H        3.6697503653   -3.3150240671   -0.6314330574
19   
Generated by ForceBalance from scan.xyz: Frame 23 of 24
C        4.5237993122    1.3928033945    0.0224521758
C        3.8663495270    0.4095372718    0.8391321776
C        4.3679936435    0.9786986954   -1.2697006526
C        3.3589259298   -0.5302247123   -0.0120738559
C        1.2966898121   -1.8100932046   -0.1249732767
C        0.5655610938   -0.5017840362   -0.3633686053
C        3.4126068459   -2.9637577715    0.3427794131
N        2.6504517393   -1.7130931713    0.1966340874
O        0.7443563070   -2.9012965760   -0.2014538315
O        3.6670380897   -0.1937949311   -1.3169324886
H        5.0366249017    2.2867955580    0.3518603338
H        3.7707379060    0.3987916872    1.9167095323
H        4.6771151080    1.3823800099   -2.2234790590
H        0.7984103141    0.2412428142    0.4034834023
H       -0.5045224160   -0.7093131901   -0.3731204802
H        0.8552964712   -0.0799592056   -1.3308802079
H        2.8014922644   -3.6884196240    0.8809658314
H        4.3230709771   -2.7506930134    0.9055105159
H        3.6768548946   -3.3851266261   -0.6335209728
19   
Generated by ForceBalance from scan.xyz: Frame 24 of 24
C        4.4649711814    1.3936877762   -0.0163427691
C        3.7776954776    0.4208787309    0.7881017344
C        4.4255292171    0.9220980188   -1.2975665684
C        3.3650419512   -0.5668704523   -0.0599295651
C        1.2864727271   -1.8346794559    0.0523542535
C        0.5661874700   -0.5329614887   -0.2533106269
C        3.4608003341   -2.9841480038    0.3519893419
N        2.6751564998   -1.7615920793    0.1383434099
O        0.6881031038   -2.8900002240    0.2282956098
O        3.7631727175   -0.2722322713   -1.3498777839
H        4.9250291349    2.3156010487    0.3140440648
H        3.6045718512    0.4469623150    1.8557948195
H        4.8015859523    1.2946535707   -2.2398981407
H        0.6927340006    0.1827078368    0.5640733127
H       -0.4931574298   -0.7577966461   -0.3760869194
H        0.9521799796   -0.0646513956   -1.1629293872
H        2.7654457750   -3.8054787888    0.5215977248
H        4.1107362928   -2.8631815019    1.2236992907
H        4.0759596059   -3.2004696981   -0.5273607269
