73

C      3.51429    1.91958    1.38856
C      3.89228   -0.45994    1.27180
C      2.85141   -1.75306    4.09828
C      4.42574   -0.00480    4.56124
C      3.88410   -2.69398    4.12652
C      5.45597   -0.94498    4.57224
C      4.87897    2.15861    1.17977
C      5.25263   -0.24370    1.06124
C     -1.17362    0.02363    2.11689
C      3.00684    0.61172    1.46289
C      1.54779    0.38137    1.71823
C      0.71684    0.17775    0.59836
C      3.10950   -0.39210    4.29274
C      5.21592   -2.31047    4.34628
C     -0.35639    0.21663    3.22959
C      1.03628    0.40226    3.03188
C     -0.65675    0.00778    0.81934
C      5.72377    1.06562    1.03169
C     -2.77303    1.29176   -2.38086
C     -2.30698   -0.19032   -2.46756
C     -1.38382    1.65764   -1.78685
C      0.23675   -0.45197   -1.77918
C      1.27541    0.11413   -0.81419
C     -1.13257    0.14503   -1.52157
C     -2.36030   -0.40355    4.72147
C     -1.09897    1.75537    5.07809
C      7.13958   -3.22908    5.68558
C      7.35175   -2.94229    3.18853
C      5.91704   -4.75629    4.13362
C      1.96840    0.61765    4.22934
C     -0.99204    0.28624    4.61768
C      6.38509   -3.30490    4.33896
O     -1.55951   -0.21042   -0.18425
O      1.65567    1.40852   -1.32154
O      2.41804    1.97507    4.34499
F      7.05141    1.28074    0.84604
H      2.83387    2.76249    1.49069
H      3.51620   -1.47556    1.32792
H      1.83628   -2.08184    3.88723
H      4.65009    1.04101    4.74565
H      3.63445   -3.73644    3.96052
H      6.46888   -0.59638    4.75502
H      5.27955    3.16655    1.13125
H      5.94634   -1.06948    0.94366
H     -2.24313   -0.11720    2.22229
H     -3.58359    1.42565   -1.66040
H     -3.05089    1.77608   -3.32059
H     -2.98833   -0.96408   -2.10492
H     -1.94923   -0.46090   -3.46556
H     -0.68902    2.05182   -2.53109
H     -1.35362    2.30114   -0.90476
H      0.55778   -0.24299   -2.80305
H      0.17379   -1.53975   -1.65473
H      2.15671   -0.53849   -0.82248
H     -3.13521    0.13372    4.16489
H     -2.67754   -0.43034    5.76912
H     -2.32618   -1.43340    4.35144
H     -1.77188    2.30715    4.41195
H     -0.12964    2.26012    5.06341
H     -1.50484    1.81163    6.09454
H      7.97143   -3.94253    5.69736
H      7.55348   -2.23292    5.86575
H      6.47096   -3.46874    6.51892
H      8.21113   -3.62247    3.17977
H      6.84681   -3.02354    2.21964
H      7.73180   -1.92094    3.28376
H      6.78206   -5.42766    4.14064
H      5.23992   -5.08148    4.93039
H      5.40664   -4.88931    3.17385
H      1.38955    0.48032    5.14032
H     -0.33725   -0.24091    5.32017
H      2.38617    1.73342   -0.76978
H      2.99281    2.15943    3.58434
