20

C      1.68916   -0.94859   -0.00274
C      0.65087   -0.33378    0.69955
C      2.72597   -1.56347    2.10884
C      1.69571   -0.94797    2.82964
C      2.71569   -1.55192    0.71726
C      0.66774   -0.33909    2.09415
C      1.70260   -0.96832    4.34601
C      4.83493   -1.51280   -0.31320
O      0.72577   -1.85062    4.89981
O      3.73418   -2.23329    0.02097
F      5.47242   -1.00409    0.76734
F      4.54621   -0.46748   -1.12395
F      5.67685   -2.32743   -0.95703
Cl    -0.66575    0.44568    2.94196
H      1.70132   -0.96220   -1.08753
H     -0.16501    0.14457    0.16771
H      3.53848   -2.05839    2.63218
H      2.66727   -1.33984    4.69655
H      1.57389    0.05119    4.73141
H     -0.15022   -1.45920    4.75113
