14

C     -0.26731    0.02867    1.01532
C      0.48516    0.72992    1.95917
C     -0.02051    0.65473    3.26771
C     -1.72761   -0.64729    2.58827
C      1.70363    1.51970    1.57108
N     -1.37474   -0.66791    1.30929
N     -1.10978   -0.02391    3.59159
O      1.34097    2.90395    1.53168
Cl     0.79963    1.46900    4.57745
Cl    -3.16388   -1.53808    3.01524
H      0.03714    0.02827   -0.03040
H      2.50501    1.34134    2.29815
H      2.05321    1.18049    0.58633
H      2.14958    3.43453    1.60240
