23

C      1.58623   -1.22682   -0.04200
C      2.80359   -1.26664    2.06491
C      0.45590   -0.70454    0.60290
C      1.67359   -0.74714    2.68971
C      0.51055   -0.46498    1.98633
C      2.75224   -1.50567    0.68813
C     -2.46051   -0.40487   -3.33697
C     -2.23853   -0.20398   -1.83388
C     -0.83812   -0.62210   -1.41311
O     -0.72023   -0.39909   -0.00124
F      1.69854   -0.50787    4.01746
F     -0.56340    0.03676    2.62641
S      4.22184   -2.16849   -0.07430
H      1.55670   -1.41452   -1.10815
H      3.68874   -1.47190    2.65843
H     -1.74978    0.18260   -3.92938
H     -2.34494   -1.45668   -3.62239
H     -3.46868   -0.09270   -3.62497
H     -2.96642   -0.78689   -1.25943
H     -2.38751    0.84672   -1.56295
H     -0.66638   -1.68447   -1.63389
H     -0.07959   -0.03092   -1.94412
H      3.73145   -2.25202   -1.32689
