20

C      1.88727   -1.04778   -0.14600
C      0.83523   -0.41744    0.52168
C      2.83757   -1.67854    1.99773
C      1.78595   -1.05642    2.68267
C      2.87474   -1.67467    0.60643
C      0.78848   -0.42728    1.91726
C      1.74135   -1.11382    4.19474
C      3.86742   -3.56936   -0.38097
O      0.74704   -2.01857    4.68155
O      3.97793   -2.25800   -0.05019
F      2.83894   -3.80891   -1.22766
F      3.67604   -4.36475    0.69936
F      5.00403   -3.93780   -0.98012
Cl    -0.54811    0.38652    2.70548
H      1.94251   -1.04905   -1.22965
H      0.05361    0.08399   -0.03964
H      3.63546   -2.16706    2.54990
H      2.73630   -1.38266    4.57376
H      1.47301   -0.14058    4.60994
H      0.92447   -2.89332    4.30021
