35

C     -4.95758   -4.39766   -0.41571
C     -4.13347   -5.02131    0.54232
C     -1.56380   -1.91640   -0.76379
C      1.64518   -0.49576   -1.18053
C      0.27904   -0.72395   -1.85077
C     -0.97397    0.40530   -0.02992
C      0.29883    1.27098    0.00736
C      1.55657    0.38001    0.10154
C      0.18262    2.32401    1.11394
C      1.56771   -0.50007    1.35913
C     -2.67450   -1.86305    0.30496
N     -4.53588   -3.13983   -0.58709
N     -3.21294   -4.14093    0.95084
N     -3.50543   -3.03985    0.25525
N     -0.78354   -0.79681   -0.84774
O     -1.41151   -2.90953   -1.46750
O      2.66733    1.29683    0.15259
H     -5.80738   -4.77996   -0.96472
H     -4.16326   -6.02401    0.94652
H      2.10011   -1.46173   -0.93604
H      2.30360    0.01047   -1.89346
H      0.04989    0.09429   -2.54424
H      0.26061   -1.65282   -2.41854
H     -1.22775    0.11642    0.99372
H     -1.80767    1.01148   -0.41233
H      0.38528    1.80901   -0.94430
H      0.06493    1.86641    2.10166
H     -0.69092    2.96238    0.93977
H      1.07165    2.95669    1.13413
H      1.49206    0.10258    2.26765
H      2.50663   -1.06442    1.40718
H      0.75660   -1.23399    1.34617
H     -3.31512   -0.99124    0.15817
H     -2.23918   -1.81248    1.30512
H      3.48245    0.77287    0.21293
