35

C     -0.22371   -4.57247   -1.36756
C     -0.80690   -4.23008   -2.60260
C      2.22323   -1.16199   -1.23605
C      0.86260    1.57426    0.64832
C      1.43837    0.15956    0.65599
C     -0.20555   -0.53435   -1.05079
C     -0.81952    0.87699   -1.06339
C     -0.62877    1.60832    0.28991
C     -2.27490    0.79822   -1.53884
C     -1.49216    1.02844    1.41868
C      1.92061   -2.02517   -2.47309
N      0.84942   -3.79482   -1.17288
N     -0.08689   -3.24442   -3.15451
N      0.88519   -3.02827   -2.26278
N      1.19039   -0.51593   -0.62106
O      3.39438   -1.07244   -0.86730
O     -0.93154    3.00888    0.13240
H     -0.51379   -5.31370   -0.63532
H     -1.67902   -4.62916   -3.10240
H      1.01126    2.03915    1.62847
H      1.40113    2.18231   -0.08611
H      2.51515    0.17759    0.81636
H      0.99122   -0.43955    1.46114
H     -0.78443   -1.19756   -0.39213
H     -0.28534   -0.94355   -2.05517
H     -0.25386    1.47075   -1.79203
H     -2.88036    0.14558   -0.90124
H     -2.32451    0.39922   -2.55740
H     -2.74657    1.78633   -1.56054
H     -2.55916    1.15876    1.20762
H     -1.26903    1.54769    2.35524
H     -1.31941   -0.04056    1.57120
H      2.86028   -2.51746   -2.72640
H      1.59870   -1.41855   -3.32130
H     -1.89416    3.10643    0.06257
