20

C      3.56294    0.99285    0.01862
C      4.18060    1.36233    1.25078
C      2.77099   -0.09927    0.28355
C      3.71219    0.46703    2.17509
C      2.12428   -0.79617   -2.03313
C      1.84289   -0.94594   -0.53623
N      2.01585   -2.36443   -0.18146
N      3.98377    0.33116    3.56702
O      4.76604    1.16230    4.05586
O      3.43112   -0.58874    4.18364
O      2.85444   -0.42531    1.61096
O      1.80490    0.54038   -2.43040
H      3.65921    1.47531   -0.94289
H      4.87241    2.16923    1.44598
H      3.17662   -1.03948   -2.22736
H      1.49918   -1.52398   -2.56883
H      0.81927   -0.57511   -0.35431
H      1.21427   -2.89513   -0.51707
H      2.03584   -2.47170    0.83079
H      1.91268    0.60648   -3.39124
