35

C     -1.05257   -2.81012    3.48824
C     -2.04603   -2.00415    4.07627
C     -2.04090   -1.69348   -0.45171
C      1.05558    0.00213   -0.94871
C     -0.36368   -0.25038   -1.48374
C     -1.44495    0.49078    0.62430
C     -0.25335    1.46425    0.62937
C      1.07448    0.69983    0.44150
C     -0.30847    2.34010    1.88528
C      1.33398   -0.32497    1.55265
C     -3.01683   -1.96801    0.70434
N     -1.28193   -2.87625    2.17046
N     -2.87684   -1.58215    3.11406
N     -2.37323   -2.12801    2.00206
N     -1.28105   -0.56276   -0.38665
O     -2.00945   -2.48428   -1.39512
O      2.10115    1.71269    0.47112
H     -0.21010   -3.32260    3.93243
H     -2.19691   -1.71513    5.10743
H      1.59781   -0.94773   -0.89090
H      1.58492    0.64448   -1.65946
H     -0.73783    0.63372   -2.01508
H     -0.38660   -1.08479   -2.18250
H     -1.53417    0.04315    1.61386
H     -2.36743    1.05959    0.44047
H     -0.33694    2.13224   -0.23650
H     -0.26713    1.74094    2.80049
H     -1.24353    2.91106    1.90839
H      0.52526    3.04440    1.89658
H      1.32851    0.14675    2.53865
H      2.31908   -0.78504    1.40515
H      0.59914   -1.13339    1.53838
H     -3.54260   -2.88755    0.44339
H     -3.74097   -1.15978    0.82098
H      2.95928    1.26525    0.39532
