15

C      1.15807    1.08310   -0.37428
C      0.14626    0.21377   -0.44947
C     -0.17922   -0.80955    0.59008
O     -1.11224   -1.58043    0.52832
O     -0.94454    2.63916   -2.35036
O      0.69947   -0.78216    1.62902
O     -2.59238    1.51286   -0.66032
O     -2.56402    0.72498   -3.06841
O     -0.71302    0.13733   -1.54135
P     -1.63528    1.39577   -1.94567
H      1.33068    1.80922   -1.16197
H      1.80603    1.07512    0.49364
H      0.40361   -1.47772    2.24625
H     -2.89816    2.42590   -0.52476
H     -2.31776    1.03218   -3.95757
