38

C      1.89997   -2.01773    0.23214
C      3.28082   -0.53589    1.53177
C      0.75535   -1.49988    0.84081
C      2.14749    0.00079    2.14112
C     -2.22133    0.99197    2.94846
C      3.17856   -1.54556    0.56182
C      0.88360   -0.47922    1.78583
C     -1.41355    0.78440    4.10987
C     -1.42943    0.52000    1.89672
C     -6.47914    2.30305    2.91135
C     -6.04354    2.90365    0.84408
C     -3.54048    1.57936    2.93703
C      4.40990   -2.09174   -0.12170
C     -1.74949    1.10071    5.53525
C     -6.41790    1.67091    4.26178
N     -0.24609    0.23474    3.79600
N     -7.53818    2.90155    2.41958
N     -7.26463    3.29987    1.11341
N     -4.21763    1.72671    1.84917
N     -0.26409    0.06642    2.43340
N     -5.47693    2.28676    1.93818
S     -5.15037    3.09743   -0.65840
Cl    -1.73965    0.54743    0.21161
H      1.79376   -2.81364   -0.50106
H      4.26182   -0.16076    1.81387
H     -0.22285   -1.89779    0.59321
H      2.22992    0.77689    2.89472
H     -3.92033    1.90174    3.90738
H      4.66978   -1.48516   -0.99761
H      5.27444   -2.08636    0.54855
H      4.25367   -3.11755   -0.46741
H     -2.64394    0.56048    5.86393
H     -0.91676    0.81063    6.17903
H     -1.93667    2.17114    5.67349
H     -6.00553    0.65751    4.21512
H     -5.82075    2.25238    4.97295
H     -7.43844    1.61598    4.64509
H     -6.17936    3.74222   -1.24613
