21

C      0.21864   -0.30147    3.50886
C     -0.91406   -0.65771    2.77702
C      1.47357   -0.76337    3.10990
C     -0.76338   -1.48588    1.65588
C      1.50697   -1.56878    1.96955
C     -3.26607   -2.13210    1.34950
C     -1.94072   -1.20818   -0.62484
C     -1.64031   -2.66029   -0.50298
C     -1.91932   -1.85141    0.77256
N      0.44818   -1.92334    1.26613
O     -4.29332   -2.21238    0.69859
O     -3.25583   -2.35246    2.69263
Cl     3.06526   -2.17110    1.40522
H      0.12783    0.33670    4.38384
H     -1.89538   -0.30657    3.07257
H      2.38181   -0.51204    3.64602
H     -1.11774   -0.53093   -0.82910
H     -2.91705   -0.91027   -0.99155
H     -2.41578   -3.36170   -0.78954
H     -0.61419   -2.98973   -0.61235
H     -4.17829   -2.57034    2.92866
