21

C     -2.20846   -6.95109    0.81398
C     -3.05785   -7.07392   -0.32073
C     -1.08336   -6.31423    0.31876
C      0.67609   -7.08068   -3.76934
C      0.58958   -6.70140   -2.49173
C     -4.42422   -7.68306   -0.36182
C     -0.31968   -5.60173   -2.00254
N     -2.48755   -6.54658   -1.41126
N     -1.28320   -6.07228   -1.01408
N     -2.44384   -7.44977    2.11238
Cl     0.35988   -5.84996    1.15721
H      1.35161   -7.87274   -4.08251
H      0.07086   -6.61353   -4.54402
H      1.19615   -7.19278   -1.73166
H     -5.14668   -7.10126    0.22450
H     -4.78090   -7.72515   -1.39344
H     -4.41049   -8.69884    0.04859
H     -0.90088   -5.18082   -2.82433
H      0.26356   -4.79621   -1.54431
H     -3.35893   -7.17985    2.46263
H     -1.73555   -7.13558    2.76997
