13

C      0.57789    1.18579    1.84601
C     -0.30420    0.27015    1.15950
C      0.02567    1.62883    3.03553
C     -0.05665   -0.39872   -0.16084
N     -1.44639    0.04397    1.78239
N      1.88252    1.57819    1.34650
O      2.41041    0.83512    0.50842
O      2.38431    2.61908    1.78116
S     -1.51322    0.89220    3.23044
Br     0.71058    2.77696    4.35047
H      0.76948   -1.10949   -0.08400
H     -0.96632   -0.92051   -0.46257
H      0.22126    0.33093   -0.92606
