15

C      0.69675    1.00802   -0.25292
C     -0.17751    0.00167   -0.16315
C     -0.08523   -1.12463    0.81495
O     -0.86662   -2.04893    0.87574
O     -0.54921    0.90158   -3.28322
O      0.98727   -0.99757    1.64312
O     -2.70428   -0.53038   -2.95591
O     -0.44353   -1.64650   -2.70294
O     -1.31343   -0.09421   -0.96123
P     -1.17954   -0.22514   -2.56204
H      0.57565    1.78881   -0.99669
H      1.54895    1.03669    0.41501
H      0.95957   -1.77267    2.23535
H     -3.11904    0.24096   -3.37856
H      0.08871   -1.69420   -3.51533
