21

C      1.67127   -1.95103    2.22175
C      0.49525   -2.31370    1.56506
C      1.72279   -0.75639    2.94097
C     -0.61863   -1.46673    1.65314
C      0.55967    0.01641    2.94716
C     -2.39777   -3.13287    0.73237
C     -3.03350   -0.71149    1.01513
C     -2.23498   -0.77935   -0.23791
C     -1.89580   -1.74005    0.91536
N     -0.56495   -0.30981    2.33904
O     -3.28483   -3.45070   -0.04063
O     -1.81400   -4.04459    1.55762
Cl     0.56533    1.54596    3.82467
H      2.54708   -2.59255    2.17157
H      0.44030   -3.23738    1.00217
H      2.61452   -0.43294    3.46600
H     -2.84662    0.10177    1.70586
H     -4.03642   -1.12297    0.99790
H     -2.68294   -1.23474   -1.11442
H     -1.49787   -0.00307   -0.41578
H     -2.26461   -4.89104    1.37145
