24

C      4.39064    1.77677   -5.58246
C      3.77072    1.12833   -4.55379
C      5.69095   -0.03581   -4.45081
C      2.39416    1.07332   -2.51218
C      3.75723    1.29299   -0.58692
C      5.07902   -2.75939   -2.85518
C      2.39684    1.42276   -3.99253
N      4.47511    0.11639   -3.94393
N      6.67881   -0.87816   -4.11898
O      1.70552    0.20610   -2.00381
O      6.29189   -0.81921   -1.53213
O      7.70649   -2.60198   -2.62138
O      3.27556    1.83928   -1.83569
S      5.99578    1.10150   -5.82014
S      6.54397   -1.69324   -2.70706
H      4.02092    2.59864   -6.18253
H      4.30990    2.10387   -0.10931
H      4.43015    0.45974   -0.80953
H      2.92329    0.97161    0.04192
H      5.01044   -3.33177   -1.92722
H      4.20550   -2.12276   -2.99543
H      5.23301   -3.42447   -3.70718
H      2.14735    2.47983   -4.13106
H      1.62300    0.81284   -4.46755
