18

C      0.04070   -1.02632   -1.14231
C      0.01318    1.02138    1.87747
C      0.42036    1.75176    3.87962
C     -1.53139    1.07072   -0.09126
C     -0.08680    0.88273    0.38107
N     -0.33168   -1.54113   -2.12212
N      0.50431    2.05160    2.49581
N     -0.47746    0.02775    2.70431
N     -0.02312    0.39738    3.99042
N      0.43082   -0.46957    0.02421
O      0.66865    2.47108    4.82424
H     -2.18102    0.29212    0.31675
H     -1.89145    2.04380    0.25069
H     -1.58620    1.04211   -1.18184
H      0.54613    1.66147   -0.05504
H     -0.27754   -0.93421    2.43577
H     -0.69623    0.22340    4.73224
H      1.43296   -0.56123    0.17619
