20

C     -1.06241   -1.76171    0.60539
C     -1.37460   -1.47784    2.05509
C      1.26411    1.31794   -1.84817
C      1.02028    2.57246    2.34707
N     -0.51654   -0.70286   -0.14934
O     -1.24958   -2.83827    0.06248
O     -1.55388    1.59180    0.86942
O      0.01146    1.57184   -1.17801
P     -0.37560    0.94077    0.25500
S      1.33832    0.97674    1.48773
H     -2.08401   -0.64965    2.13706
H     -0.46733   -1.18606    2.59243
H     -1.79290   -2.38054    2.49924
H      1.20930    1.85411   -2.79538
H      1.40180    0.24851   -2.03886
H      2.09818    1.69014   -1.24898
H      1.73164    2.61823    3.17381
H     -0.00136    2.58731    2.72622
H      1.18318    3.41595    1.67498
H     -0.44017   -0.94591   -1.13496
