15

C      5.04086   -3.10967    2.32610
C      2.45903   -5.24227    3.45108
C      3.88401   -1.95144    4.23113
C      2.68790   -1.32026    3.51523
N      4.87485   -2.48443    3.33845
S      5.42181   -3.93316    1.02188
S      1.14854   -3.97672    3.68032
S      1.76172   -2.44390    2.39813
H      2.09210   -6.14685    3.94554
H      3.40284   -4.93934    3.90683
H      2.61128   -5.44508    2.39040
H      3.53495   -2.75070    4.89504
H      4.35833   -1.19396    4.86324
H      2.00625   -0.91384    4.26762
H      3.01534   -0.50216    2.86507
