20

C     -1.56579   -0.31670   -0.23103
C      2.38382    1.12969    0.62250
C      1.25969   -2.55002   -1.34921
C     -2.75411    0.35270    0.55505
N     -0.50219    0.51874   -0.44654
O     -1.61054   -1.48725   -0.54570
O      0.77329    0.09494   -2.79421
O      1.92495    1.17932   -0.75051
O      1.38395   -1.28056   -0.64474
P      0.91913    0.08113   -1.33049
Cl    -2.16993    0.68783    2.23488
Cl    -3.21790    1.91272   -0.23683
Cl    -4.15204   -0.73048    0.60343
H      2.99745    2.01894    0.76451
H      2.97660    0.22769    0.78442
H      1.53539    1.14497    1.31338
H      1.95373   -3.22784   -0.85253
H      1.53111   -2.42313   -2.39834
H      0.23320   -2.90368   -1.25632
H     -0.63998    1.51267   -0.28533
