12   
Generated by ForceBalance from scan.xyz: Frame 1 of 15
C        0.0086337397   -1.1174182284   -0.4333103527
C        0.0141232261    1.1936371211    0.0981550785
C        0.1471078828   -0.3801256724   -1.7612945972
C        0.0341431033    1.1169898438   -1.4243513079
N       -0.1687581649   -0.1276312693    0.5520575128
O        0.0402051539   -2.3105187958   -0.2369003612
O        0.1645340941    2.1663736851    0.8008191701
Br      -0.2360842274   -0.5463565884    2.3723547158
H        1.1160983605   -0.6471957373   -2.1911333742
H       -0.6244022636   -0.7416960972   -2.4447527441
H       -0.8909577833    1.5657917103   -1.7972802525
H        0.8649891787    1.7210879722   -1.7935956671
12   
Generated by ForceBalance from scan.xyz: Frame 2 of 15
C       -0.1086708521   -1.0966583290   -0.4386303226
C        0.0571042891    1.2063003849    0.0366744956
C        0.0986628714   -0.3985335864   -1.7799997817
C        0.0040403299    1.1114467994   -1.4836129882
N       -0.3339299385   -0.0711753331    0.5037957819
O       -0.0949687609   -2.2823295952   -0.2036362739
O        0.4547458366    2.1215537267    0.7181525203
Br      -0.3840322634   -0.4545737906    2.3378774584
H        1.0829906978   -0.6894743972   -2.1568590297
H       -0.6459668560   -0.7637358800   -2.4905884947
H       -0.9438895488    1.5399843566   -1.8227976384
H        0.8144244642    1.7057381931   -1.9075013656
12   
Generated by ForceBalance from scan.xyz: Frame 3 of 15
C       -0.0780647043   -1.0884397180   -0.4263087642
C        0.0619169105    1.1913838801    0.0585855138
C        0.1392388673   -0.3772200990   -1.7607729292
C       -0.0449713083    1.1272176975   -1.4596415029
N       -0.4267167597   -0.0750317105    0.4980222492
O        0.0083834125   -2.2693456342   -0.1859718746
O        0.6246538237    2.0095400000    0.7449216321
Br      -0.4478660223   -0.4749534129    2.3356011347
H        1.1532434849   -0.6076398095   -2.0989749930
H       -0.5563953037   -0.7765398679   -2.5018103810
H       -1.0332199711    1.4827926210   -1.7655906889
H        0.7115767764    1.7723276942   -1.9069311827
12   
Generated by ForceBalance from scan.xyz: Frame 4 of 15
C        0.0081655715   -0.9911191411   -0.4418156400
C        0.0917766118    1.2820973330   -0.0347299077
C        0.2093124539   -0.3102888184   -1.7974714759
C       -0.0686866772    1.1963811419   -1.5469969467
N       -0.4547570234    0.0332813386    0.4222152415
O        0.1746730249   -2.1509640561   -0.1511407936
O        0.8083380291    2.0257046852    0.5883983252
Br      -0.4786320027   -0.3206130299    2.2764392625
H        1.2411608776   -0.4866491401   -2.1131670068
H       -0.4498715926   -0.7696180740   -2.5372714049
H       -1.0878090925    1.4670699256   -1.8354770580
H        0.6364969002    1.8678666645   -2.0362639889
12   
Generated by ForceBalance from scan.xyz: Frame 5 of 15
C       -0.0210201117   -1.0008771332   -0.4217283192
C        0.1238166122    1.2401196372   -0.0109672092
C        0.2069998234   -0.3068300170   -1.7711858837
C       -0.1046213463    1.2004004582   -1.5158159064
N       -0.5359801948    0.0201419107    0.4200320265
O        0.1526327499   -2.1584932659   -0.1297497976
O        1.0145788064    1.8203118771    0.5577533465
Br      -0.5854918523   -0.3492726001    2.2778583935
H        1.2524279978   -0.4548425490   -2.0555413884
H       -0.4211575384   -0.7689394997   -2.5357704949
H       -1.1400139276    1.4379372765   -1.7694933693
H        0.5737107795    1.8828788498   -2.0269080601
12   
Generated by ForceBalance from scan.xyz: Frame 6 of 15
C        0.0043226352   -0.9705135285   -0.4053282932
C        0.1381615847    1.2417732306   -0.0224224148
C        0.2204038451   -0.2804607937   -1.7638015679
C       -0.1291903041    1.2302122954   -1.5201798968
N       -0.6096510102    0.0386496805    0.3889394116
O        0.2387157400   -2.1098276777   -0.0889190771
O        1.1472828404    1.6521843536    0.4930046881
Br      -0.6765103439   -0.3091746680    2.2584536846
H        1.2666884713   -0.4038612135   -2.0544070763
H       -0.4070695343   -0.7555884910   -2.5212538891
H       -1.1723970094    1.4379864900   -1.7621619871
H        0.5340883711    1.9169459844   -2.0454517875
12   
Generated by ForceBalance from scan.xyz: Frame 7 of 15
C        0.0159671645   -0.9732601423   -0.3686130193
C        0.1512124865    1.2157119143   -0.0104274328
C        0.2217539132   -0.2801461662   -1.7365379561
C       -0.1618189028    1.2371487475   -1.5005319834
N       -0.6730531671    0.0274112575    0.3741627736
O        0.2880554679   -2.0972425627   -0.0332683208
O        1.2550041320    1.4665865065    0.4057216622
Br      -0.7975369233   -0.3051071701    2.2523046690
H        1.2694634173   -0.3764333716   -2.0305078713
H       -0.4027053586   -0.7659542482   -2.4901004030
H       -1.2124822888    1.4199985519   -1.7246359558
H        0.4865578094    1.9244906885   -2.0434370360
12   
Generated by ForceBalance from scan.xyz: Frame 8 of 15
C        0.0182179131   -0.9740907756   -0.3702352802
C       -0.1376993803    1.2159785030   -0.0274909462
C       -0.0179613892   -0.2786816953   -1.7519267038
C        0.3493683917    1.2348183631   -1.4701516037
N        0.6240897740    0.0197584320    0.4501251371
O       -0.3021940772   -2.0955119581   -0.0709439293
O       -1.2805037429    1.4772733419    0.2557004219
Br       0.5226713932   -0.3144297872    2.3293576240
H        0.6865301093   -0.7702322950   -2.4271192964
H       -1.0244674893   -0.3648808238   -2.1677391575
H       -0.2238031511    1.9284646437   -2.0848926034
H        1.4208306616    1.4076847196   -1.5683154560
12   
Generated by ForceBalance from scan.xyz: Frame 9 of 15
C        0.0341445056   -0.9714458590   -0.4053133440
C       -0.1230770715    1.2419173996   -0.0378246247
C       -0.0134025929   -0.2790026782   -1.7788400798
C        0.3192251415    1.2281986923   -1.4935267859
N        0.5594950056    0.0315986245    0.4573243415
O       -0.2467460433   -2.1085528003   -0.1203927365
O       -1.1820992791    1.6618109669    0.3553545424
Br       0.4017322127   -0.3173408322    2.3211612385
H        0.6946422922   -0.7599013365   -2.4575242616
H       -1.0191476042   -0.3923288379   -2.1911810054
H       -0.2708328786    1.9213737565   -2.0925194940
H        1.3856308448    1.4260647196   -1.6102902095
12   
Generated by ForceBalance from scan.xyz: Frame 10 of 15
C        0.0609589573   -1.0020450216   -0.4186446884
C       -0.1102018088    1.2401254316   -0.0247591811
C        0.0005293993   -0.3054987770   -1.7846249422
C        0.2940316543    1.1986201216   -1.4921391621
N        0.4824958997    0.0137896118    0.4794707800
O       -0.1569056584   -2.1580263465   -0.1508310822
O       -1.0563900019    1.8286490766    0.4355575346
Br       0.3086858037   -0.3565671039    2.3296230645
H        0.7102188236   -0.7733858777   -2.4702919532
H       -1.0053364972   -0.4434463995   -2.1906918130
H       -0.3126891441    1.8876790461   -2.0788369135
H        1.3543413760    1.4263246354   -1.6213984868
12   
Generated by ForceBalance from scan.xyz: Frame 11 of 15
C        0.0344447924   -0.9920042637   -0.4420275860
C       -0.0751838489    1.2817999884   -0.0445104533
C        0.0013054373   -0.3089269126   -1.8110051142
C        0.2619957920    1.1949534330   -1.5273504780
N        0.4017117177    0.0277013206    0.4720617304
O       -0.1761911067   -2.1502826508   -0.1746696699
O       -0.8532821642    2.0320521527    0.4906394680
Br       0.2030180417   -0.3268933766    2.3156294444
H        0.7389004075   -0.7743354858   -2.4683933667
H       -0.9876419772   -0.4753417282   -2.2466274253
H       -0.3740689876    1.8732717578   -2.0955622352
H        1.3105748345    1.4559728458   -1.6930441471
12   
Generated by ForceBalance from scan.xyz: Frame 12 of 15
C        0.1173138206   -1.0901473246   -0.4165766965
C       -0.0574110583    1.1907812586    0.0515532806
C        0.0659169489   -0.3765354816   -1.7663782630
C        0.2274728613    1.1259957431   -1.4435058855
N        0.3638905590   -0.0803585914    0.5438757696
O       -0.0080800512   -2.2702369694   -0.1897743395
O       -0.6895295798    2.0140980767    0.6677397855
Br       0.1640202791   -0.4809452788    2.3705294996
H        0.8404214750   -0.7822867089   -2.4206019578
H       -0.9031625999   -0.5971732017   -2.2223200767
H       -0.4648109525    1.7784169340   -1.9761313626
H        1.2482589509    1.4721997622   -1.6300854828
12   
Generated by ForceBalance from scan.xyz: Frame 13 of 15
C        0.1490834646   -1.0986566971   -0.4252146432
C       -0.0499057251    1.2056533390    0.0303885925
C        0.1082750541   -0.3982247005   -1.7807099479
C        0.1814906080    1.1107037396   -1.4731163602
N        0.2711118025   -0.0756241030    0.5386509299
O        0.0965095179   -2.2842059775   -0.1951376542
O       -0.5166018124    2.1244805147    0.6613968848
Br       0.1005659930   -0.4599738302    2.3652731739
H        0.9281510152   -0.7703326852   -2.3988698226
H       -0.8273453949   -0.6796490779   -2.2716127661
H       -0.5674875309    1.7128215289   -1.9889381763
H        1.1668611670    1.5302581310   -1.6973501926
12   
Generated by ForceBalance from scan.xyz: Frame 14 of 15
C        0.0318527141   -1.1180785567   -0.4337352925
C       -0.0146466774    1.1927343769    0.0965055121
C        0.0578845924   -0.3792714696   -1.7678167090
C        0.1447048794    1.1166553563   -1.4178373931
N        0.1007382084   -0.1303061108    0.5671210124
O       -0.0337409394   -2.3108705556   -0.2440596921
O       -0.2379668434    2.1666894873    0.7777611079
Br      -0.0511469732   -0.5501582807    2.3821036166
H        0.9013869359   -0.7480977948   -2.3556488043
H       -0.8559353254   -0.6369628776   -2.3096216609
H       -0.6307981931    1.7291222972   -1.8815759155
H        1.1117679251    1.5561401622   -1.6784524723
12   
Generated by ForceBalance from scan.xyz: Frame 15 of 15
C        0.0230231048   -1.1222199541   -0.4245460280
C       -0.0033222261    1.1958765770    0.0997538492
C        0.1016553674   -0.3895943899   -1.7598149336
C        0.0899711710    1.1109795573   -1.4200970477
N       -0.0348819614   -0.1292048194    0.5694338810
O        0.0104509335   -2.3162396913   -0.2302423197
O       -0.0427455316    2.1895210036    0.7887443829
Br      -0.1442612227   -0.5416252751    2.3873778815
H        1.0101941569   -0.7130081420   -2.2733713747
H       -0.7483624468   -0.7036446037   -2.3703849443
H       -0.7619990735    1.6472939167   -1.8447061324
H        0.9957761474    1.6348688831   -1.7347604665
