14   

C       -1.7012086961   -0.2960033615    0.1220806706
C        0.4076507823   -0.7134711401    0.1434816868
C        1.7730573129   -1.3318565289    0.0555675803
C        0.2773311457    0.8242679608    0.1942988081
N        1.3602699798    2.0364786104   -1.9203169342
N       -1.1913369788    0.9107905565    0.1732043574
N       -0.7573192535   -1.3065683690    0.0924876984
N        0.8676053377    1.4877624232   -0.9742864582
N        1.8227321580   -2.6275193672   -0.2958711529
O        2.7942530598   -0.6757595135    0.1560687616
H       -2.7725949465   -0.4823441525    0.1015927531
H        0.7085254965    1.2170846282    1.1246755729
H        2.7416968622   -3.0535480757   -0.3780071158
H        0.9748884062   -3.1820755118   -0.3716561252
14   

C       -1.7275449963   -0.3290849559    0.1136011093
C        0.3844786400   -0.7221975334    0.2211090475
C        1.7549254493   -1.3379939925    0.1760723541
C        0.2360204193    0.8170008366    0.1814011877
N        1.3658931341    1.9231255380   -1.9664577334
N       -1.2321634450    0.8847760091    0.1156112718
N       -0.7727218903   -1.3289199473    0.1565796038
N        0.8534976466    1.4208228801   -1.0051933860
N        1.8391590504   -2.5547442420   -0.3971478306
O        2.7630582148   -0.6942832808    0.4037465528
H       -2.7960631336   -0.5288648520    0.0765879473
H        0.6367465391    1.2651562313    1.1004632871
H        2.7654887202   -2.9660286994   -0.4726623106
H        1.0039244333   -3.1057137342   -0.5727828506
14   

C       -1.7319437586   -0.3396785963    0.0348540632
C        0.3690076636   -0.7524051844    0.2530198917
C        1.7269031564   -1.4014634872    0.2965033448
C        0.2382949966    0.7905043621    0.1545090687
N        1.4507841652    1.8094966653   -1.9912493003
N       -1.2251671678    0.8694480626    0.0278436030
N       -0.7902742442   -1.3472552131    0.1405206072
N        0.9039086313    1.3449677021   -1.0298940357
N        1.8911293754   -2.4848975083   -0.4952976491
O        2.7043763758   -0.8134725263    0.7207454166
H       -2.8002143866   -0.5304754970   -0.0385203722
H        0.6093017633    1.2665341750    1.0722338570
H        2.8225341868   -2.8914110972   -0.5183494983
H        1.0863850796   -3.0081501509   -0.8274089876
14   

C       -1.7356809738   -0.2955980007   -0.0255025276
C        0.3474558878   -0.7520451430    0.2677182009
C        1.6803901280   -1.4461387210    0.3928176440
C        0.2566422194    0.7940776668    0.1112689789
N        1.5203291577    1.7101264124   -2.0512211245
N       -1.2012950070    0.9014646781   -0.0516981410
N       -0.8211717283   -1.3212859581    0.1304004292
N        0.9530288151    1.2904888683   -1.0810011765
N        1.9729381869   -2.3616467768   -0.5622428206
O        2.5948720358   -0.9486151014    1.0220043070
H       -2.8061873562   -0.4641190081   -0.1180281636
H        0.6203218511    1.2942715953    1.0192262381
H        2.9041671582   -2.7669602782   -0.5134199491
H        1.2280120576   -2.8416204052   -1.0581185088
14   

C       -1.7545937358   -0.2764649385   -0.0082232774
C        0.3180538823   -0.7738718897    0.2958949870
C        1.6277624011   -1.5074585558    0.4643432764
C        0.2640426328    0.7698119380    0.0774664115
N        1.5214227344    1.5780413175   -2.1312476280
N       -1.1917223541    0.9055700218   -0.0826223056
N       -0.8646322665   -1.3172962980    0.1822013855
N        0.9587281288    1.2055526056   -1.1392320799
N        2.0526648457   -2.2348355626   -0.6018773895
O        2.4610990845   -1.1323514337    1.2662508081
H       -2.8293891189   -0.4225506508   -0.0882194443
H        0.6438831905    1.2969094944    0.9634521550
H        2.9777831483   -2.6447199305   -0.4981050252
H        1.3784787930   -2.6551475673   -1.2338733555
14   

C       -1.7685777740   -0.2447422453    0.0861841420
C        0.2996597480   -0.7920059971    0.3356095833
C        1.5871909244   -1.5656348305    0.5192980856
C        0.2807000240    0.7442573086    0.0490003350
N        1.4694850178    1.4386352558   -2.2352969193
N       -1.1754025482    0.9148051141   -0.0675329990
N       -0.9025455724   -1.3009505855    0.2970440136
N        0.9387673716    1.1156346107   -1.2087805102
N        2.1277107170   -2.0930091785   -0.6171458446
O        2.3288767526   -1.3581046940    1.4593485008
H       -2.8492468526   -0.3626266527    0.0515305372
H        0.7021918644    1.2986355702    0.8987930988
H        3.0410657433   -2.5205511981   -0.4807846364
H        1.5213085330   -2.4311517036   -1.3573099823
14   

C       -1.7830153901   -0.1867177751    0.2347845665
C        0.2774416643   -0.8051179342    0.3704896714
C        1.5384658250   -1.6240434986    0.5644918811
C        0.2934019919    0.7187467279    0.0131790579
N        1.3406858358    1.3016908307   -2.3697305360
N       -1.1600959681    0.9388949288   -0.0207963989
N       -0.9433377180   -1.2616246645    0.4515942147
N        0.8747934142    1.0260112098   -1.2987151357
N        2.1992214636   -1.9494307370   -0.5922723189
O        2.1497991212   -1.6541516260    1.6138790330
H       -2.8671221714   -0.2651200564    0.2739883400
H        0.7825032935    1.2947583574    0.8106713308
H        3.0892135471   -2.4158235757   -0.4275893518
H        1.6723826516   -2.1708299033   -1.4301516798
14   

C       -1.7835400717   -0.0926727082    0.3959701637
C        0.2545751482   -0.8047040013    0.3858589030
C        1.4831073331   -1.6721015969    0.5933588622
C        0.3027634664    0.7012822517   -0.0464225339
N        1.1325342558    1.1652051234   -2.5392430732
N       -1.1370172777    0.9881867060    0.0302146728
N       -0.9737535802   -1.1895886674    0.6073869171
N        0.7667673088    0.9393374625   -1.4185038773
N        2.2774708666   -1.8110286572   -0.5236492329
O        1.9018800704   -2.0204234968    1.6790889426
H       -2.8630718571   -0.1203797241    0.5256955675
H        0.8800861119    1.2919740751    0.6777803323
H        3.1223306833   -2.3492647919   -0.3385220978
H        1.8599997094   -1.8562275249   -1.4454002803
14   

C       -1.7637664434   -0.0247886527    0.5434712827
C        0.2390099571   -0.8274062185    0.3870258388
C        1.4329334211   -1.7487110592    0.5755436052
C        0.3093620072    0.6659019749   -0.0871899648
N        0.8812718755    1.0479202037   -2.6658701522
N       -1.1034088554    1.0206751367    0.1077076513
N       -0.9840544668   -1.1479960893    0.7174371270
N        0.6355834810    0.8566838815   -1.5061193510
N        2.3557810668   -1.7023535717   -0.4539749633
O        1.6648818497   -2.4059032522    1.5706649460
H       -2.8298707921   -0.0053808497    0.7580101598
H        0.9758023194    1.2506146150    0.5611747509
H        3.1522630004   -2.3168654726   -0.2916305096
H        2.0812596015   -1.4941749601   -1.4044501210
14   

C       -1.7456519846    0.0377756574    0.6152032013
C        0.2232454515   -0.8375290676    0.3737468881
C        1.3764366113   -1.8157945417    0.5457294184
C        0.3118612943    0.6465596772   -0.1325364808
N        0.6924858202    0.9214718651   -2.7607483661
N       -1.0723492391    1.0565045468    0.1389483595
N       -0.9952046815   -1.1077352483    0.7641827041
N        0.5371596224    0.7812635399   -1.5777750772
N        2.4332023924   -1.6226293154   -0.3283450838
O        1.4377522752   -2.7014171129    1.3756311506
H       -2.7983849254    0.0945202279    0.8826240912
H        1.0398082133    1.2246668814    0.4522604777
H        3.1866689592   -2.2970583409   -0.2022821355
H        2.3822533636   -1.0764503498   -1.1756734850
14   

C       -1.7414112630   -0.3643174045   -0.1672687334
C        0.3485540042   -0.7484078713    0.2830202006
C        1.6090552851   -1.5423752629    0.5939521648
C        0.1247883611    0.8000940600    0.3898817965
N        1.3797485228    2.1751195110   -1.5244493482
N       -1.3119466609    0.8463403311    0.0908539877
N       -0.7700843791   -1.3345770094   -0.0592156266
N        0.8303905873    1.5511615129   -0.6570433889
N        2.7542834529   -0.7673156778    0.7026709921
O        1.6976150804   -2.7535663512    0.6443308258
H       -2.7733380590   -0.5860716039   -0.4298396675
H        0.3502210484    1.1760725223    1.3962018031
H        3.5972286617   -1.3150083991    0.8702701982
H        2.7790266285    0.2384897045    0.7875823626
14   

C       -1.7515433037   -0.3570421730   -0.1093666909
C        0.3455043941   -0.7562158356    0.2806253148
C        1.6294302241   -1.5332064724    0.5137434681
C        0.1503806891    0.7957634342    0.3433430871
N        1.3997660746    2.0677218591   -1.6441229473
N       -1.2942186805    0.8553076052    0.0867999779
N       -0.7918221398   -1.3388533710    0.0008971756
N        0.8494182832    1.4924137797   -0.7445764909
N        2.7221039350   -0.7306094263    0.8123324212
O        1.7846897445   -2.7274192463    0.3501609323
H       -2.7950881526   -0.5707841168   -0.3292097293
H        0.4077775139    1.2017062447    1.3295426561
H        3.5814384901   -1.2648308315    0.9348824084
H        2.6629255912    0.2075465237    1.1831552218
14   

C       -1.7653840031   -0.3480192870   -0.0270842360
C        0.3426580357   -0.7366986184    0.2981037189
C        1.6517761835   -1.4883338979    0.4544104601
C        0.1542394689    0.8166830181    0.3084826950
N        1.3663143725    1.9938085150   -1.7582497540
N       -1.2985951315    0.8701493040    0.1005851109
N       -0.8040485640   -1.3286083522    0.0860337483
N        0.8301677337    1.4622659113   -0.8241656617
N        2.6887786218   -0.7091008631    0.9405229988
O        1.8698876060   -2.6266988305    0.0893601169
H       -2.8168233953   -0.5665258525   -0.1995102705
H        0.4453096238    1.2598175587    1.2684306311
H        3.5627962757   -1.2280917866    1.0148562871
H        2.5489116615    0.1011944867    1.5296727583
14   

C       -1.7526049273   -0.3386849652    0.0312026460
C        0.3658459686   -0.7068239256    0.2950943158
C        1.6941680767   -1.4335579347    0.3945407396
C        0.1715100070    0.8460139922    0.2580722620
N        1.3246581671    1.9399746306   -1.8860898286
N       -1.2882729381    0.8854243511    0.1002559582
N       -0.7830248823   -1.3121630517    0.1434440074
N        0.8134964713    1.4466319867   -0.9178342338
N        2.6691108802   -0.7380782834    1.0790351526
O        1.9749254932   -2.4732563331   -0.1683203297
H       -2.8083740955   -0.5666375887   -0.0967990328
H        0.4969831423    1.3240562041    1.1896327699
H        3.5535131912   -1.2426514247    1.1188339098
H        2.4524322725   -0.0744333903    1.8124560717
14   

C       -1.7481154348   -0.3420551197    0.1072415778
C        0.3815438403   -0.6771151668    0.2972371969
C        1.7274310793   -1.3741258488    0.3559239051
C        0.1693303269    0.8719650175    0.2097125435
N        1.2334904552    1.8772015728   -2.0217582648
N       -1.2964396252    0.8889669214    0.1124514106
N       -0.7636312254   -1.3019540339    0.2166722851
N        0.7610781922    1.4251058003   -1.0145816916
N        2.6324487356   -0.8119915624    1.2206433041
O        2.0856792580   -2.2533471045   -0.4026662111
H       -2.8055238117   -0.5848868477    0.0303736293
H        0.5326921873    1.3883632586    1.1063038956
H        3.5300782586   -1.2935093525    1.2256895237
H        2.3421132748   -0.3053818018    2.0489769369
14   

C       -1.6976764719   -0.3426514763    0.1843069779
C        0.4404894801   -0.6331122577    0.2944091480
C        1.8085438749   -1.2822926151    0.3324212919
C        0.2002034656    0.9080628477    0.1638755492
N        1.1768304572    1.8299002157   -2.1420120651
N       -1.2687781063    0.8954183135    0.1253099770
N       -0.6928788695   -1.2830317885    0.2923959455
N        0.7415034499    1.4177639903   -1.1017095897
N        2.6231474973   -0.8926953201    1.3556022831
O        2.2858399857   -1.8914757108   -0.6049944690
H       -2.7529702723   -0.6046459417    0.1579168628
H        0.5942831171    1.4596040163    1.0262219099
H        3.5493983831   -1.3142370245    1.3228825745
H        2.2483031070   -0.5870796668    2.2470886728
14   

C       -1.6792285303   -0.3258069329    0.3022424507
C        0.4597158670   -0.5986504840    0.3087769703
C        1.8439117054   -1.2027690333    0.3335417871
C        0.2068037792    0.9306732103    0.1116478431
N        1.0978151560    1.7219817724   -2.2754560936
N       -1.2627619176    0.9079040206    0.1428113363
N       -0.6637469212   -1.2548913225    0.4217618387
N        0.6973700090    1.3710426145   -1.1995958482
N        2.5802614216   -1.0076679452    1.4574601454
O        2.4270485759   -1.5103432609   -0.6886290647
H       -2.7329596302   -0.5921739181    0.3431526936
H        0.6388800378    1.5243923699    0.9267637142
H        3.5331910495   -1.3603591064    1.4003949828
H        2.1394474293   -0.8975796104    2.3647959847
14   

C       -1.6505921961   -0.3084855035    0.4300389694
C        0.4856122177   -0.5627934452    0.3410906135
C        1.8849345913   -1.1207718136    0.3602427515
C        0.2110497949    0.9472073669    0.0661652440
N        1.0125732910    1.6148750961   -2.3890044724
N       -1.2559269374    0.9135326751    0.1619726633
N       -0.6199253232   -1.2188464417    0.5702372968
N        0.6487761882    1.3201894596   -1.2839512532
N        2.5459333391   -1.1279410189    1.5393450526
O        2.5466958239   -1.1844986015   -0.6593137138
H       -2.6985470500   -0.5791426072    0.5372776188
H        0.6705355097    1.5874879931    0.8295904167
H        3.5164507697   -1.4280896867    1.4860280110
H        2.0473901371   -1.1762727689    2.4221396713
14   

C       -1.6200672895   -0.2726157719    0.5068621717
C        0.5117357388   -0.5169950385    0.3501013812
C        1.9224868327   -1.0388321313    0.3794549617
C        0.2160623447    0.9676361074   -0.0085262956
N        0.9351868334    1.5125452490   -2.5185873915
N       -1.2468101731    0.9297989592    0.1389857923
N       -0.5758368897   -1.1632300732    0.6745915456
N        0.6059656237    1.2717268083   -1.3901554064
N        2.4964020544   -1.2534288673    1.5800398381
O        2.6531578284   -0.9159476030   -0.5869080892
H       -2.6611120610   -0.5421611465    0.6697607721
H        0.6946383232    1.6541869643    0.7012380616
H        3.4766005403   -1.5232194387    1.5570635230
H        1.9350031268   -1.4290332558    2.4074147408
14   

C       -1.5903165914   -0.2614743469    0.5609459072
C        0.5419548465   -0.4705212327    0.3761538444
C        1.9677113205   -0.9442189985    0.4209996901
C        0.2114892658    0.9814541624   -0.0582800305
N        0.8735847775    1.4254113981   -2.6035218852
N       -1.2478679355    0.9242747399    0.1176123427
N       -0.5248411934   -1.1203052005    0.7592108828
N        0.5687202165    1.2276617476   -1.4601793623
N        2.4545427461   -1.3685678446    1.6010429526
O        2.7552010863   -0.6561446201   -0.4624390307
H       -2.6226425219   -0.5407744844    0.7591167772
H        0.6885937295    1.7131902460    0.6060636741
H        3.4414546507   -1.6119660005    1.6184190007
H        1.8351651597   -1.6611069299    2.3505172476
14   

C       -1.7190160473   -0.3015043711    0.1039205464
C        0.3696438190   -0.7438078203   -0.1461933379
C        1.7067045497   -1.3940819814   -0.3581411197
C        0.2963067926    0.7348939343    0.3039455367
N        1.2744240494    2.3984731779   -1.5370847526
N       -1.1669188824    0.8485714820    0.4072038952
N       -0.8125704610   -1.2975975644   -0.2099922123
N        0.8274125273    1.6524584765   -0.7108808032
N        1.8863852030   -2.6263303012    0.1450787747
O        2.6755449674   -0.7555573751   -0.7291239446
H       -2.7955416322   -0.4566921156    0.1048418441
H        0.8007788634    0.8794037782    1.2679741500
H        2.8142554826   -3.0295237664    0.0469862185
H        1.0975009282   -3.1947256969    0.4381646575
14   

C       -1.7062373231   -0.2970359310    0.1067956529
C        0.3901938733   -0.7301349238   -0.0835396648
C        1.7393819386   -1.3651612835   -0.2542185729
C        0.2961868070    0.7704192003    0.2705846787
N        1.2800523892    2.3380213618   -1.6499265132
N       -1.1694476298    0.8745292361    0.3486751363
N       -0.7857120324   -1.2990780688   -0.1403492063
N        0.8304229273    1.6336253465   -0.7894255083
N        1.8506531664   -2.6666299661    0.0501410765
O        2.7384206244   -0.7071275851   -0.4846217023
H       -2.7810539688   -0.4636710167    0.1052214400
H        0.7867833487    0.9783973828    1.2303210440
H        2.7747698934   -3.0828050662   -0.0250908844
H        1.0298263432   -3.2365073759    0.2321679844
14   

C       -1.7038455746   -0.2948130020    0.1236916531
C        0.3984774884   -0.7219934193   -0.0024243345
C        1.7559785486   -1.3451779884   -0.1433545785
C        0.2885924185    0.7959980554    0.2512724117
N        1.2915597348    2.2532472261   -1.7448162136
N       -1.1787908814    0.8933917674    0.3013162434
N       -0.7727270075   -1.3018751443   -0.0538177349
N        0.8336099330    1.5969870545   -0.8513212820
N        1.8288888149   -2.6803349572   -0.0529481647
O        2.7694561658   -0.6784645638   -0.2552441158
H       -2.7773102507   -0.4698949062    0.1188339198
H        0.7628216954    1.0674220026    1.2035111907
H        2.7499410195   -3.1037614814   -0.1241648678
H        0.9914427204   -3.2483223640    0.0363548355
14   

C       -1.7056317514   -0.3041163999    0.1196221323
C        0.4025670370   -0.7196837734    0.0677136265
C        1.7671851627   -1.3332383370   -0.0468988937
C        0.2749303119    0.8107605644    0.2196947955
N        1.3117155338    2.1517015243   -1.8396384340
N       -1.1938698616    0.8975695092    0.2338025905
N       -0.7631556076   -1.3110977378    0.0165600104
N        0.8390435337    1.5463835115   -0.9182792563
N        1.8233543802   -2.6665452237   -0.1770542315
O        2.7855177107   -0.6647429707   -0.0511105639
H       -2.7773540867   -0.4891844858    0.1066515698
H        0.7261092594    1.1454816975    1.1630830179
H        2.7434613615   -3.0912678865   -0.2523906036
H        0.9787677774   -3.2310807691   -0.1713525924
