19   

C        5.6932733555    1.6990317561    0.7935765753
C        4.4443177720    1.8920638914    0.2900374886
C        5.3732873779    0.0755162514   -0.6115990430
C        4.9166906812   -1.4365495204   -2.4760919078
C        4.0966568671   -0.4280758732   -3.2747150891
C        6.6450612910   -2.0267315009   -0.8312813935
N        6.2427889260    0.5562766231    0.2390545013
N        4.2238056691    0.8636949802   -0.6135129552
N        5.6143152192   -1.1089326371   -1.3224836136
O        4.9361914834   -2.5756203117   -2.9329356719
H        6.1784011002    2.3387263323    1.5217240493
H        3.7666744470    2.6904629017    0.5698541745
H        3.9493271140   -0.7738326805   -4.3016752577
H        4.5022612748    0.5838479132   -3.2003591483
H        3.0979256685   -0.3905138946   -2.8343779511
H        6.3421483742   -2.3834647336    0.1583086714
H        7.5566594417   -1.4797717698   -0.5704635181
H        6.8444879723   -2.8758462613   -1.4925735156
H        3.3804253090    0.6737637939   -1.1417440273
19   

C        5.5840396267    1.8673525620    0.8674712091
C        4.3114493218    1.9506392347    0.3921713149
C        5.3624324283    0.1998571563   -0.5022440921
C        4.8780776198   -1.4233730131   -2.2495734966
C        4.0634602550   -0.4795093814   -3.1278963272
C        6.7439630446   -1.8383094810   -0.7034046069
N        6.2123406981    0.7645768321    0.3153304069
N        4.1524861474    0.8918164157   -0.4890623537
N        5.6782826483   -0.9723307117   -1.2065249782
O        4.7801427372   -2.6183592180   -2.5110049425
H        6.0329341880    2.5555139282    1.5744789215
H        3.5784850951    2.6975117654    0.6749673731
H        3.9994605854   -0.8815906879   -4.1427298634
H        4.4106439345    0.5557120082   -3.0838372405
H        3.0248695469   -0.5261912213   -2.7924245931
H        6.3872780084   -2.2957796971    0.2250889303
H        7.6029909220   -1.2596654278   -0.3495560611
H        7.0120147811   -2.6433767698   -1.3951626283
H        3.3157638094    0.6264308483   -0.9955893714
19   

C        5.5880773073    1.8986626605    0.8616258633
C        4.2963395493    1.9088870311    0.4314432664
C        5.4151098978    0.2256854549   -0.5053914305
C        4.8711577468   -1.4411266316   -2.1636188214
C        4.0916028010   -0.5355169915   -3.1103033534
C        6.8454346230   -1.7758585489   -0.7223714496
N        6.2609400824    0.8368981439    0.2817542823
N        4.1675850317    0.8450155514   -0.4487871090
N        5.7751718560   -0.9236080095   -1.2311708678
O        4.6331686674   -2.6415839076   -2.2340100888
H        6.0204416752    2.6095521668    1.5563801328
H        3.5314970073    2.6110441607    0.7429497114
H        4.1289454024   -0.9674802947   -4.1139541142
H        4.4181302429    0.5072959889   -3.0878775967
H        3.0262030987   -0.6391628698   -2.8911154019
H        6.4916375534   -2.2314102934    0.2083964970
H        7.7055444311   -1.1887192544   -0.3854613474
H        7.1027607569   -2.5886796065   -1.4090733910
H        3.3307256554    0.5323228333   -0.9280377106
19   

C        5.5870946465    1.8282601945    0.8926929873
C        4.2798067586    1.8748429997    0.5136107889
C        5.3471178713    0.2494919533   -0.5699617350
C        4.6429329038   -1.3052398148   -2.2444158041
C        3.9663302998   -0.3481809070   -3.2174609989
C        6.6817402738   -1.7900090984   -0.9227519152
N        6.2291299267    0.8024589543    0.2200348729
N        4.1079506760    0.8718299941   -0.4286697380
N        5.6677691131   -0.8520849436   -1.3887237520
O        4.1975095308   -2.4435198834   -2.1805191631
H        6.0512126184    2.4896537647    1.6152766698
H        3.5333024533    2.5594463002    0.8996635633
H        4.0941202410   -0.7582168992   -4.2226595105
H        4.3523550715    0.6732088268   -3.1648778857
H        2.8812763523   -0.4239853545   -3.1121150107
H        6.3179027543   -2.2429625599    0.0056253525
H        7.5904748598   -1.2710423239   -0.6017622993
H        6.8619018596   -2.5997480395   -1.6369342054
H        3.2508780867    0.5942139837   -0.8943226719
19   

C        5.6169265531    1.8367429131    0.8639127187
C        4.2928534710    1.8413552123    0.5437353653
C        5.3603596102    0.2449684055   -0.5795970216
C        4.5605545391   -1.3186584418   -2.1670368232
C        3.9585993841   -0.4345668063   -3.2496912387
C        6.6709186370   -1.7996674388   -0.9348514633
N        6.2605019057    0.8280880533    0.1667839476
N        4.1098044803    0.8296226058   -0.3871288542
N        5.6770593074   -0.8496166292   -1.4150290401
O        3.9705948559   -2.3516530787   -1.8858742668
H        6.0918001688    2.5154562515    1.5630475088
H        3.5431313439    2.5030662251    0.9619932562
H        4.2593458922   -0.8659016091   -4.2078508630
H        4.3367703695    0.5907519284   -3.2212815816
H        2.8707633905   -0.5366464389   -3.2765923094
H        6.3059257932   -2.2251037935    0.0061847330
H        7.5984557151   -1.2950050310   -0.6463180058
H        6.8198315328   -2.6290600695   -1.6332548951
H        3.2417944778    0.5187919582   -0.8106817286
19   

C        5.3806188969    1.5835882322    0.9276884458
C        4.0299384562    1.5967245681    0.7379457922
C        4.9345603535   -0.1842832973   -0.2290727010
C        4.0964539167   -1.4620856498   -2.0321278832
C        4.5362452066   -1.1924229287   -3.4620683683
C        6.3987389149   -1.8956033751   -1.1566149786
N        5.9274208301    0.4622720409    0.3233768906
N        3.7275841970    0.4660546559   -0.0070359818
N        5.0462206217   -1.3963375084   -0.9376130915
O        2.9913703967   -1.9307127146   -1.8440063064
H        5.9416719924    2.3343744564    1.4724611270
H        3.3419548980    2.3434440690    1.1173626212
H        5.1751451206   -2.0191465723   -3.7805800530
H        5.2096797126   -0.3319025400   -3.4952363769
H        3.6829717442   -1.1332640728   -4.1429982007
H        6.9322603465   -1.9997503396   -0.2059885928
H        6.9723825802   -1.1380798597   -1.7015735266
H        6.4051042792   -2.8127957165   -1.7536110852
H        2.8226208379    0.1142729093   -0.3126159752
19   

C        5.4550858474    1.6994936372    1.1007803997
C        4.1059352882    1.7455300562    0.9054872710
C        4.9817401502   -0.0178923634   -0.1203545616
C        4.0961799830   -1.3096867484   -1.9090743072
C        4.4989523886   -1.3978796284   -3.3733562749
C        6.4276729519   -1.7191915090   -1.1087707082
N        5.9839929830    0.5901782628    0.4590840070
N        3.7874378139    0.6477259452    0.1195133740
N        5.0813666212   -1.2066627918   -0.8747583365
O        2.9405227524   -1.5771159500   -1.6213254392
H        6.0275895568    2.4194926517    1.6744165767
H        3.4296370113    2.4916710801    1.3061905123
H        4.9660332930   -2.3714988538   -3.5376250944
H        5.3008663194   -0.6884617745   -3.5934199308
H        3.6306337984   -1.3242631920   -4.0336163537
H        6.9817562709   -1.8047060338   -0.1680027634
H        6.9924040190   -0.9711626739   -1.6756092523
H        6.4255839844   -2.6450631193   -1.6917194614
H        2.8808496424    0.3195166727   -0.2094078980
19   

C        5.4762368092    1.6634852355    1.2578208551
C        4.1333622236    1.7512349032    1.0371549652
C        4.9988616880    0.0445760554   -0.0923241671
C        4.1121311346   -1.2190488885   -1.9218711512
C        4.4692377291   -1.5534845466   -3.3632812791
C        6.4534890412   -1.6113376741   -1.1599755900
N        5.9985291266    0.5914253686    0.5504595482
N        3.8139344258    0.7177217205    0.1691768105
N        5.1095229229   -1.0878165116   -0.9286517277
O        2.9308420519   -1.3103564484   -1.6040316861
H        6.0491851862    2.3294403838    1.8929768780
H        3.4617062490    2.4818976572    1.4724705880
H        4.7755874520   -2.6016134638   -3.3967315495
H        5.3597797124   -1.0065154993   -3.6830651012
H        3.6049994347   -1.4445546214   -4.0240462972
H        6.9995148643   -1.7209933925   -0.2169632745
H        7.0309850622   -0.8497314051   -1.6949267149
H        6.4582012294   -2.5199282703   -1.7690247291
H        2.9123367398    0.4290560203   -0.2089402171
19   

C        5.4768805808    1.5961533429    1.3806419090
C        4.1395246770    1.7181999620    1.1460866727
C        5.0035037291    0.0884007536   -0.0974115213
C        4.1268874998   -1.1481314393   -1.9718924009
C        4.4380750240   -1.6600327607   -3.3722140669
C        6.4770280016   -1.5041348473   -1.2420947296
N        5.9979196191    0.5743959550    0.6015055884
N        3.8242198373    0.7573503863    0.1973719855
N        5.1323807022   -0.9753308119   -1.0157764821
O        2.9373507385   -1.0866521317   -1.6585741076
H        6.0472042203    2.2044274782    2.0733897545
H        3.4689339903    2.4237541805    1.6223706165
H        4.6958016712   -2.7187319873   -3.2913621957
H        5.3493131671   -1.2009213275   -3.7637020043
H        3.5697630423   -1.5768497000   -4.0314146523
H        7.0151542381   -1.6339106129   -0.2970714526
H        7.0637374697   -0.7294701164   -1.7473221427
H        6.4946092330   -2.3968028873   -1.8734280533
H        2.9287640880    0.5100938348   -0.2234405898
19   

C        5.4666548560    1.5451697639    1.4635047849
C        4.1306729437    1.6814334244    1.2318140036
C        5.0025798761    0.1387882149   -0.1175211257
C        4.1332255639   -1.0898058520   -2.0166086406
C        4.3993584019   -1.7502509054   -3.3638557667
C        6.5008467393   -1.3796589938   -1.3313104970
N        5.9923695544    0.5802694317    0.6179493126
N        3.8224121838    0.7865201250    0.2188444225
N        5.1519447675   -0.8567666889   -1.1037988212
O        2.9480130095   -0.8983332830   -1.7273491415
H        6.0332397178    2.1052777010    2.1986393683
H        3.4567914619    2.3540551852    1.7492238199
H        4.6681712033   -2.7934263744   -3.1808302300
H        5.3001718083   -1.3390918001   -3.8262682181
H        3.5157155830   -1.7248136400   -4.0073011614
H        7.0350626902   -1.5262539896   -0.3865266293
H        7.0895202605   -0.5882643590   -1.8072784732
H        6.5367585338   -2.2568610242   -1.9824636265
H        2.9318400801    0.5705583457   -0.2292950033
19   

C        5.4584000137    1.5145437699    1.5655783422
C        4.1221706355    1.6536268555    1.3392330835
C        5.0128609120    0.2138161471   -0.1109250720
C        4.1515105607   -0.9993405249   -2.0336739426
C        4.3819719372   -1.7848445686   -3.3196498827
C        6.5366514679   -1.2206269505   -1.3932893142
N        5.9957312766    0.6161292021    0.6565524861
N        3.8263479009    0.8266768533    0.2667832265
N        5.1822652391   -0.7089122115   -1.1610748494
O        2.9780470428   -0.6921054229   -1.7921698050
H        6.0175914886    2.0279710684    2.3394403300
H        3.4405078315    2.2853614078    1.8964079937
H        4.6898015322   -2.7985739451   -3.0519056292
H        5.2581568231   -1.4016322050   -3.8485412376
H        3.4814475224   -1.8242666782   -3.9385666526
H        7.0710853602   -1.3816320685   -0.4510189423
H        7.1218316848   -0.4133396840   -1.8459618984
H        6.5904977183   -2.0828870509   -2.0621113314
H        2.9414553993    0.6392218970   -0.2051506847
19   

C        5.4752873889    1.2645217260    1.7897978422
C        4.1454599504    1.4152081400    1.5378966090
C        5.0971971470    0.1444168325   -0.0302803070
C        4.2625541102   -0.9875234416   -2.0191965860
C        4.4823884164   -1.8646412378   -3.2477401715
C        6.6528739382   -1.1580542673   -1.4341738871
N        6.0497466242    0.4731568744    0.8073438967
N        3.8927710216    0.7026459438    0.3762274399
N        5.2977519809   -0.6613313039   -1.1682437690
O        3.1025830129   -0.5960474729   -1.8377541648
H        6.0050884859    1.6972388174    2.6307698769
H        3.4402185234    1.9810960307    2.1350173392
H        5.0188549742   -2.7741631090   -2.9676369556
H        5.1995020795   -1.3721457676   -3.9087981684
H        3.5461511762   -2.0731919329   -3.7726790139
H        7.4204527507   -0.7790376281   -0.7524184342
H        6.9268417719   -0.9854035549   -2.4789875012
H        6.6416299524   -2.2517013850   -1.3982115621
H        3.0257623068    0.5633110728   -0.1433811462
19   

C        5.3546197429    1.1771417435    1.8175133169
C        4.0209562627    1.3247857095    1.5816232301
C        4.9862431872    0.1951018818   -0.0800861869
C        4.1543070336   -0.9131748721   -2.0775427053
C        4.3421606581   -1.9011536930   -3.2231601749
C        6.5748909724   -0.9714731894   -1.5421624246
N        5.9389112387    0.4739310496    0.7752531160
N        3.7736935914    0.6982008644    0.3701090933
N        5.2061978404   -0.5191733798   -1.2733950754
O        3.0174366820   -0.4424698669   -1.9521385410
H        5.8803005859    1.5527685747    2.6879898917
H        3.3100924863    1.8349946444    2.2208077844
H        4.9351857994   -2.7579394060   -2.8937298805
H        4.9884881154   -1.4384790880   -3.9730143815
H        3.3885142882   -2.1804893347   -3.6793257482
H        7.3113156215   -0.2235812363   -1.2294680718
H        6.7459086385   -1.3326756656   -2.5589952564
H        6.7919992246   -1.7957374389   -0.8547475312
H        2.9084375258    0.5912691039   -0.1597878667
19   

C        5.3372476859    1.0753377707    1.8018422114
C        4.0036635559    1.2194506292    1.5612356278
C        5.0021074956    0.2158470596   -0.1582102332
C        4.1709624511   -0.8656190422   -2.1609692745
C        4.3414773015   -1.9600372210   -3.2075299696
C        6.6046487477   -0.8585497917   -1.6750554077
N        5.9431216604    0.4519894351    0.7216906619
N        3.7769153792    0.6701558244    0.3086919117
N        5.2372883385   -0.4140378111   -1.3967054875
O        3.0677007869   -0.3118116205   -2.1254978946
H        5.8481725086    1.3999780365    2.7011346749
H        3.2799966985    1.6798258108    2.2235128452
H        4.9638796205   -2.7715513442   -2.8222899650
H        4.9412996695   -1.5539483229   -4.0256195248
H        3.3788149683   -2.2877658839   -3.6092375753
H        7.3391662619   -0.1174180588   -1.3423350363
H        6.7671931510   -1.1881320979   -2.7044861129
H        6.8202536196   -1.7067329134   -1.0166602413
H        2.9196547301    0.5950845082   -0.2390816961
19   

C        5.3150400528    0.9817537057    1.8228453906
C        3.9836124306    1.1273638059    1.5688658460
C        5.0216269830    0.2491359760   -0.1919560992
C        4.1908817053   -0.8063693267   -2.1929669566
C        4.3483902299   -2.0071901225   -3.1165408994
C        6.6375859560   -0.7312778548   -1.7558711261
N        5.9466505090    0.4376823303    0.7148742468
N        3.7825347410    0.6583723164    0.2795653644
N        5.2720326134   -0.2919774950   -1.4709403050
O        3.1267624859   -0.1904223802   -2.2653429500
H        5.8068590745    1.2524032150    2.7502230874
H        3.2450036542    1.5391082383    2.2465600067
H        4.9823275800   -2.7717609575   -2.6605183008
H        4.9199500182   -1.6842422153   -3.9899434596
H        3.3795123200   -2.3725044844   -3.4676094498
H        7.3703332605    0.0046353332   -1.4080137786
H        6.7911564377   -1.0331687355   -2.7955957073
H        6.8516957265   -1.5995897723   -1.1235900946
H        2.9353125526    0.6185773219   -0.2867380263
19   

C        5.2695715222    0.8513783429    1.8372525756
C        3.9460725036    1.0214516018    1.5559423256
C        5.0321349936    0.2690784028   -0.2306364137
C        4.2096191696   -0.7350090991   -2.2420359946
C        4.3492657430   -2.0413493998   -3.0108078982
C        6.6650719636   -0.6170366393   -1.8262603360
N        5.9322909505    0.3870187334    0.7113596958
N        3.7795809304    0.6485879707    0.2304894156
N        5.3026255423   -0.1718376363   -1.5445324477
O        3.1997644851   -0.0703575430   -2.4500358144
H        5.7346854794    1.0518171358    2.7957318581
H        3.1904446927    1.3888588983    2.2404335553
H        4.9533794387   -2.7614938119   -2.4531889511
H        4.9384365434   -1.8389929772   -3.9082945468
H        3.3762122928   -2.4178972573   -3.3375527480
H        7.3986219692    0.1088515592   -1.4596121501
H        6.8161632430   -0.8906615211   -2.8745001956
H        6.8685128106   -1.5050515529   -1.2181783593
H        2.9477879773    0.6616857367   -0.3586832361
19   

C        5.2034627823    0.6960531705    1.7954583245
C        3.8914458736    0.9010877756    1.4839559433
C        5.0275299842    0.2598372261   -0.3124920045
C        4.2258887271   -0.7005713289   -2.3340042161
C        4.3333351559   -2.1166473799   -2.8792711094
C        6.6847452766   -0.5342056802   -1.9204742631
N        5.8982988727    0.3024059532    0.6621679709
N        3.7630446876    0.6220486978    0.1311759632
N        5.3228605458   -0.0853243407   -1.6489074038
O        3.2847938943   -0.0186872719   -2.7070836215
H        5.6387025441    0.8249723555    2.7799196722
H        3.1187294451    1.2319501355    2.1681406138
H        4.8242079563   -2.7700366111   -2.1533955629
H        5.0282228162   -2.1030444092   -3.7218979370
H        3.3686659302   -2.4814215727   -3.2421662828
H        7.4166709375    0.1802014126   -1.5289735327
H        6.8414129293   -0.7745816860   -2.9762891576
H        6.8744022840   -1.4443183552   -1.3412554885
H        2.9485919381    0.6917150958   -0.4767985187
19   

C        5.1706060603    0.5528348098    1.7597295902
C        3.8687439488    0.7940893355    1.4319006750
C        5.0420929564    0.2670736475   -0.3766954571
C        4.2682730954   -0.6372355837   -2.4185950805
C        4.3000253803   -2.1340453415   -2.6819717160
C        6.7241662775   -0.4222335260   -1.9982181600
N        5.8890320090    0.2318668571    0.6185241123
N        3.7695676343    0.6120376460    0.0600895097
N        5.3609683067    0.0182893626   -1.7258755264
O        3.4186085757    0.0309625802   -2.9735878693
H        5.5826316015    0.6078853000    2.7609522449
H        3.0837399415    1.0866112305    2.1197016519
H        4.6721207957   -2.6666047534   -1.8027508063
H        5.0678161091   -2.3275594364   -3.4344309649
H        3.3433410933   -2.4964818415   -3.0675046010
H        7.4501577742    0.2926100233   -1.5968284078
H        6.8799074923   -0.6402360978   -3.0593052006
H        6.9184633436   -1.3420318463   -1.4359867243
H        2.9677493151    0.7386295628   -0.5540326864
19   

C        4.9372858390    2.1303584581   -0.1062289556
C        4.7528651208    1.4230941081    1.0426479224
C        5.1177616214    0.0444428457   -0.6672679184
C        5.7124102520   -0.9309080220   -2.7453680323
C        4.7848683663   -0.2761903799   -3.7589535808
C        5.8039143238   -2.3112580326   -0.6872170899
N        5.1448123423    1.2561616604   -1.1588652722
N        4.8697343593    0.0831822045    0.7013928695
N        5.2667211792   -1.1554139043   -1.3916762686
O        6.8553095542   -1.1594481910   -3.0880408056
H        4.9193147161    3.2113489412   -0.1856854657
H        4.5489352925    1.8461619319    2.0194639243
H        4.5422892717   -1.0275222241   -4.5135148753
H        5.3380466524    0.4612850318   -4.3455591520
H        3.8637579426    0.1006414550   -3.3077069024
H        5.2358314268   -2.5355062596    0.2200498364
H        6.8075611699   -2.0544990620   -0.3300945881
H        5.9172751545   -3.1737634274   -1.3521355084
H        4.7723378321   -0.7280822999    1.3003341906
19   

C        4.8843657791    2.1400495920   -0.0517216000
C        4.7208235524    1.4589293935    1.1152677088
C        5.0646169944    0.0412093625   -0.5683748920
C        5.4870645023   -1.0393651131   -2.6408472350
C        4.5372706414   -0.2744809538   -3.5541848049
C        5.8080572728   -2.3129510237   -0.5410010027
N        5.0795835980    1.2420934935   -1.0865316151
N        4.8411881336    0.1123759081    0.8029357831
N        5.2177708303   -1.1844291132   -1.2487409941
O        6.5081482645   -1.4759734609   -3.1421967057
H        4.8613323039    3.2188535829   -0.1553803892
H        4.5279480840    1.9036549690    2.0846631517
H        4.4242738369   -0.8118834994   -4.4985827017
H        5.0523809436    0.6314640584   -3.8837045656
H        3.5930324302   -0.0202610786   -3.0662165441
H        5.3549058135   -2.4693118778    0.4418057913
H        6.8528583839   -2.0616117650   -0.3270031997
H        5.8343924483   -3.2139379523   -1.1627034223
H        4.7566832567   -0.6854902129    1.4215040031
19   

C        4.8505469256    2.1885725109   -0.0863149902
C        4.6919864236    1.5179573704    1.0868933584
C        5.1004929354    0.0890558059   -0.5739627735
C        5.4538992916   -1.0894995590   -2.6320257115
C        4.5419572491   -0.2484003869   -3.5188560661
C        5.8967711606   -2.2593974089   -0.5023777609
N        5.0875907280    1.2834605449   -1.1060767898
N        4.8596053039    0.1722954682    0.7937107660
N        5.3086192285   -1.1404011529   -1.2294830948
O        6.3332242986   -1.7188285557   -3.2004674808
H        4.7964569535    3.2647731309   -0.2041834608
H        4.4711727820    1.9688033795    2.0474414985
H        4.4059066575   -0.7270280913   -4.4915650290
H        5.0885430401    0.6636405824   -3.7721288158
H        3.6174202114    0.0422754813   -3.0138826467
H        5.5324127307   -2.3390011875    0.5253178121
H        6.9690505746   -2.0564692551   -0.4053286082
H        5.8376679003   -3.1925815103   -1.0722500145
H        4.7918958443   -0.6197308970    1.4217357453
19   

C        4.8597947612    2.0590535207   -0.1108214835
C        4.7267272283    1.4055441867    1.0745131852
C        5.1283740703   -0.0457872463   -0.5702605719
C        5.3302715215   -1.3329061938   -2.6057715207
C        4.4723080697   -0.4167648627   -3.4736823911
C        5.9153878169   -2.4055445478   -0.4669870854
N        5.0932879580    1.1403822864   -1.1191269987
N        4.9089122004    0.0580328163    0.7997523097
N        5.3461698136   -1.2820781450   -1.2054229724
O        6.0058386497   -2.1538158968   -3.2121138834
H        4.7907235409    3.1325045169   -0.2445123535
H        4.5125147325    1.8687995086    2.0305909742
H        4.2721834054   -0.8696071749   -4.4477861989
H        5.0688768189    0.4717960470   -3.6954262098
H        3.5879395590   -0.0561219913   -2.9427382638
H        5.7254181184   -2.3708398477    0.6088877059
H        7.0028288717   -2.3533451228   -0.5897799832
H        5.6675612811   -3.3627941439   -0.9373605489
H        4.8598806679   -0.7246201024    1.4410240162
19   

C        4.8017750175    2.0699063676   -0.0965053410
C        4.7284331435    1.4069056417    1.0881107456
C        5.1710860945   -0.0173801888   -0.5715104615
C        5.2698651203   -1.3650628407   -2.5941668755
C        4.4540287451   -0.4031290277   -3.4541246667
C        6.0243673037   -2.3555941144   -0.4790754366
N        5.0614622899    1.1675066660   -1.1129074984
N        4.9772545209    0.0722522821    0.8036241095
N        5.4409230143   -1.2360574258   -1.2158979676
O        5.7508643486   -2.3138429164   -3.2026253482
H        4.6737086312    3.1386498467   -0.2238428769
H        4.5085255156    1.8553044360    2.0498882011
H        4.2193042478   -0.8340919491   -4.4305370665
H        5.0659125682    0.4850907361   -3.6303070565
H        3.5865243721   -0.0204507404   -2.9111439909
H        5.9664639132   -2.2615816537    0.6083039625
H        7.0847931684   -2.4032290251   -0.7496842694
H        5.6635855115   -3.3157068059   -0.8625682219
H        4.9820555217   -0.7137703248    1.4424548255
19   

C        4.7752315558    2.0765277723   -0.0608589222
C        4.8548034034    1.4145752236    1.1232698123
C        5.3129645443    0.0337188568   -0.5690199481
C        5.3049960859   -1.3859416833   -2.5538607175
C        4.4886082016   -0.4226753203   -3.4123003672
C        6.3139468703   -2.2267881068   -0.4736272766
N        5.0465763132    1.1996739789   -1.0960723980
N        5.2153339643    0.1104619393    0.8172614660
N        5.6548370591   -1.1583545674   -1.2258278946
O        5.6045619103   -2.4281778991   -3.1261852755
H        4.5341453938    3.1270778014   -0.1740816810
H        4.6601907160    1.8439545014    2.0989077074
H        4.2211540843   -0.8597297313   -4.3776171743
H        5.0763506937    0.4852547529   -3.5683832703
H        3.6234363726   -0.0549557517   -2.8556498433
H        5.6698760522   -2.5361218074    0.3546537038
H        7.1685880900   -1.8140906674    0.0724099792
H        6.5944646709   -3.0970494543   -1.0759066819
H        5.3451686574   -0.6679970018    1.4517098035
