29   

C        3.0827047333   -2.8217957041    0.6819695512
C        2.4556820683   -1.6310191034    0.3063192520
C        2.8673843146   -3.3459155185    1.9592513278
C        1.6121738444   -0.9684506163    1.2051902081
C        2.0308508644   -2.6772639328    2.8600252892
C       -0.1577454794   -4.4163158676    5.7023313074
C       -0.0377628258   -5.6847753232    5.1287148123
C       -1.3789151334   -3.6781668671    3.7571546616
C        1.3909331718   -1.4815425091    2.4939293585
C       -0.8177603560   -3.3955087494    5.0108846867
C       -0.5735510403   -5.9593796337    3.8638638258
C       -1.2571973756   -4.9434942849    3.1715083297
C        0.5091501165   -0.7873169015    3.4275816395
C        0.3878060838   -0.8933446838    4.8032310948
O       -2.2147205760   -1.0958469522    5.3467310608
O       -0.6358618504   -1.7070659799    7.1429247188
S       -0.9261336337   -1.7117408648    5.7003690675
Cl      -0.3814025857   -7.5553165617    3.1717056655
Cl      -1.9480777590   -5.2292137874    1.5886825284
H        3.7341603800   -3.3369854333   -0.0152438455
H        2.6234236099   -1.2193714680   -0.6826579217
H        3.3487122439   -4.2719101426    2.2528814031
H        1.1350883866   -0.0447520496    0.8964618506
H        1.8740176969   -3.0979703863    3.8466506791
H        0.2668474825   -4.2216926899    6.6844558671
H        0.4794987704   -6.4709219325    5.6661321012
H       -1.9104914235   -2.9003092041    3.2159656644
H       -0.1567240187   -0.0574499101    2.9776257986
H        1.1756155388   -0.5074180992    5.4304764565
29   

C        2.8590988692   -3.1018711219    0.8812191417
C        2.1717215533   -1.9876134604    0.3940684983
C        2.8006769479   -3.4115594070    2.2421173731
C        1.4214274423   -1.1898079734    1.2652012853
C        2.0565932218   -2.6081294001    3.1130895056
C       -0.0688329668   -4.3959113444    5.5514000332
C        0.1165864208   -5.6109789410    4.8865659224
C       -1.2398888010   -3.5466502740    3.6210022579
C        1.3501342919   -1.4909951026    2.6357523453
C       -0.7338047978   -3.3440528094    4.9132751638
C       -0.3570746871   -5.8005199498    3.5818457161
C       -1.0493383357   -4.7559333665    2.9432813010
C        0.5415697750   -0.6668667387    3.5329816962
C        0.3628656861   -0.7591282830    4.8918645275
O       -2.2272562758   -1.1359437161    5.4094051879
O       -0.6265092993   -1.8002068039    7.1584496352
S       -0.9112073709   -1.7173103522    5.7170195953
Cl      -0.0762981538   -7.3270232215    2.7733965893
Cl      -1.6611619735   -4.9340063529    1.3129147335
H        3.4361487119   -3.7235045613    0.2055816644
H        2.2177125317   -1.7422157344   -0.6610802139
H        3.3314659874   -4.2762485109    2.6239589539
H        0.8911581529   -0.3322845092    0.8658582877
H        2.0251476357   -2.8634918922    4.1657686957
H        0.3117836270   -4.2653246320    6.5616813277
H        0.6393450795   -6.4205058682    5.3821264134
H       -1.7747156392   -2.7452626267    3.1191706872
H        0.0258684038    0.1667532171    3.0667194076
H        0.9931103494   -0.1870321001    5.5544734348
29   

C        2.7120405555   -3.3434084679    1.1798141002
C        1.8927419249   -2.3836118058    0.5806414384
C        2.8500362771   -3.3665644007    2.5695482308
C        1.2056812021   -1.4550848762    1.3707140794
C        2.1640999447   -2.4362490309    3.3579078402
C        0.0649014551   -4.3430088015    5.2749198990
C        0.2755021714   -5.4850239085    4.4977049030
C       -1.2184139051   -3.3827359547    3.4726391199
C        1.3233561206   -1.4752888117    2.7703028578
C       -0.6666432996   -3.2694207170    4.7570602653
C       -0.2374107905   -5.5786703186    3.1975298517
C       -1.0001208290   -4.5158455500    2.6811922944
C        0.5569883417   -0.5315974344    3.5915111066
C        0.3097579057   -0.6052979790    4.9287815607
O       -2.2253324919   -1.1870356445    5.5220836804
O       -0.5132980708   -1.9181659292    7.1198085089
S       -0.8679583327   -1.7244330323    5.7045950168
Cl       0.0841298145   -7.0092552870    2.2423639893
Cl      -1.6615969254   -4.5743665111    1.0616111093
H        3.2391388708   -4.0672953643    0.5682599898
H        1.7850129070   -2.3621060617   -0.4980377592
H        3.4863494088   -4.1084683627    3.0382931942
H        0.5665473590   -0.7245884917    0.8872347075
H        2.2813244627   -2.4698086178    4.4351247067
H        0.4803330117   -4.2839114974    6.2779729008
H        0.8518453966   -6.3097934639    4.8994544457
H       -1.8061058628   -2.5654813294    3.0648735572
H        0.1763115980    0.3500588808    3.0856386344
H        0.7146100210    0.1417896589    5.5935888002
29   

C        2.6383027885   -3.4113004463    1.2928373332
C        1.8112002058   -2.4788438720    0.6619198428
C        2.8051110545   -3.3638872083    2.6789177065
C        1.1445495825   -1.5075666053    1.4172634235
C        2.1382308773   -2.3917174895    3.4325756709
C        0.0749103774   -4.3635870942    5.1655005898
C        0.2886590153   -5.4891639336    4.3660525989
C       -1.2221364410   -3.3755115681    3.3883745309
C        1.2882190430   -1.4597054698    2.8135285382
C       -0.6651249158   -3.2838768311    4.6721014804
C       -0.2293517438   -5.5605714256    3.0667670013
C       -1.0002522608   -4.4921684322    2.5742255061
C        0.5491190935   -0.4630326373    3.6015159598
C        0.1777163589   -0.5370859577    4.9009296734
O       -2.2813187216   -1.3051947723    5.5729210499
O       -0.4672473973   -1.9894262126    7.0582289219
S       -0.8888016516   -1.7705383933    5.6650201126
Cl       0.0950868820   -6.9714587326    2.0837339358
Cl      -1.6694875166   -4.5246735167    0.9571742397
H        3.1496871708   -4.1681441402    0.7084501521
H        1.6819227803   -2.5115407277   -0.4141114464
H        3.4489257500   -4.0832951104    3.1718094665
H        0.4999676595   -0.7976111060    0.9109404501
H        2.2775238301   -2.3676981334    4.5076477275
H        0.4922173579   -4.3230444403    6.1687118742
H        0.8703873742   -6.3184256732    4.7503808463
H       -1.8184228323   -2.5550907584    3.0003640901
H        0.3117643958    0.4650493537    3.0911474700
H        0.3754592002    0.3024280002    5.5494968027
29   

C        3.1676539766   -3.5334461937    1.9163637957
C        2.1351568133   -3.0602522755    1.1019226255
C        3.3175242904   -3.0282941779    3.2105821329
C        1.2538770910   -2.0843667155    1.5812668445
C        2.4326544362   -2.0566456395    3.6904318897
C        0.1842473400   -4.2671269871    4.4960818371
C        0.0636546760   -5.2718877707    3.5353410252
C       -1.7897352269   -3.2031772433    3.6097785041
C        1.3863902772   -1.5765131221    2.8832335265
C       -0.7305688718   -3.2087662061    4.5275260030
C       -0.9714977346   -5.2471558877    2.5941900649
C       -1.9149880901   -4.2036154848    2.6368353204
C        0.4412454624   -0.5694488990    3.3935683275
C        0.0186328725   -0.4506164304    4.6670491825
O       -1.7868683110   -1.4782320891    6.3419827216
O        0.5429037439   -2.1440268154    6.6846079072
S       -0.5093428163   -1.8299401467    5.7032337407
Cl      -1.0656427244   -6.5071847895    1.3833768571
Cl      -3.2294615915   -4.1239113755    1.4840690355
H        3.8518795409   -4.2879157147    1.5442466183
H        2.0152450916   -3.4509849316    0.0976470173
H        4.1200603492   -3.3872765053    3.8452961655
H        0.4535673704   -1.7334642221    0.9392774802
H        2.5618371044   -1.6742840515    4.6983381767
H        1.0067267304   -4.2957365337    5.2064248205
H        0.7894505616   -6.0757959618    3.5080176478
H       -2.5197410761   -2.3994761214    3.6348166517
H        0.0786711144    0.1633539408    2.6798959342
H       -0.2216013301    0.5206639485    5.0713853773
29   

C        3.1551147855   -3.5512156055    1.9809246875
C        2.1284488806   -3.0785925575    1.1586894372
C        3.3188387175   -3.0182608601    3.2623958577
C        1.2672693916   -2.0753310923    1.6175693377
C        2.4533925269   -2.0195563571    3.7218813677
C        0.1933130029   -4.2720062537    4.4212816437
C        0.0500176331   -5.2761068179    3.4631458721
C       -1.7967683684   -3.2031857331    3.5784971092
C        1.4135482124   -1.5401628956    2.9068730432
C       -0.7192077529   -3.2124674934    4.4743683717
C       -1.0055610580   -5.2492262828    2.5451857187
C       -1.9451863041   -4.2031677696    2.6081443670
C        0.4914195913   -0.4965766593    3.3940130478
C       -0.0667401049   -0.4280106557    4.6129763685
O       -1.7228730369   -1.5482876512    6.3760140490
O        0.6447348927   -2.1316468248    6.5668174809
S       -0.4748764917   -1.8412608197    5.6546260127
Cl      -1.1298672564   -6.5100417125    1.3378930943
Cl      -3.2846540765   -4.1209172798    1.4846957396
H        3.8242436090   -4.3265498267    1.6246065249
H        1.9975752966   -3.4905503388    0.1643166988
H        4.1169755355   -3.3762729504    3.9032008753
H        0.4714821993   -1.7235845797    0.9704181007
H        2.5929237133   -1.6145948229    4.7195924442
H        1.0308161533   -4.3028997219    5.1137491707
H        0.7733844313   -6.0815217724    3.4203964343
H       -2.5245532737   -2.3982614401    3.6195189648
H        0.2407902902    0.2911436884    2.6908091121
H       -0.4495030929    0.5116029073    4.9809125240
29   

C        3.1275710972   -3.5690429619    2.0181367688
C        2.1015651901   -3.0810676475    1.2039873755
C        3.3176006002   -3.0296329191    3.2934496685
C        1.2679356442   -2.0556987574    1.6646964970
C        2.4790374135   -2.0088951880    3.7547800810
C        0.2037205334   -4.2808645931    4.4061167857
C        0.0622450181   -5.2909270128    3.4539567647
C       -1.7950321350   -3.2273242890    3.5650703041
C        1.4412729649   -1.5138681593    2.9476182170
C       -0.7149049192   -3.2266637841    4.4578237835
C       -0.9970607082   -5.2748656147    2.5400536327
C       -1.9417384653   -4.2332604444    2.6006256646
C        0.5488647022   -0.4412576017    3.4356859218
C       -0.1477296657   -0.4286973687    4.5801756972
O       -1.7123648858   -1.5977880267    6.3909869326
O        0.6770385387   -2.1087512457    6.5122642555
S       -0.4769931785   -1.8506471920    5.6335721607
Cl      -1.1197425140   -6.5434324637    1.3407300583
Cl      -3.2859634332   -4.1642963187    1.4819333780
H        3.7756172505   -4.3613880065    1.6603090505
H        1.9498059009   -3.4979459034    0.2146450259
H        4.1151013993   -3.3998046945    3.9280852741
H        0.4723823453   -1.6907355082    1.0245896177
H        2.6371854509   -1.5986981530    4.7475698523
H        1.0439163710   -4.3033955689    5.0955998524
H        0.7897266160   -6.0926891110    3.4129612110
H       -2.5268573138   -2.4260477925    3.6041052616
H        0.4154265612    0.4061005571    2.7708475953
H       -0.6436492075    0.4749321748    4.9000974416
29   

C        1.9929508938   -3.0252090254    0.8731624715
C        1.0931111703   -1.9558516683    0.8726499029
C        2.7099210250   -3.3288089763    2.0337717829
C        0.9060529402   -1.1967882845    2.0332354319
C        2.5258543637   -2.5647936402    3.1917431143
C       -0.2611893550   -3.9911351903    5.4253912068
C        0.1592851993   -5.2871380473    5.1152568108
C       -0.9294690217   -3.6838788396    3.1295108357
C        1.6157291648   -1.4970033359    3.2072990660
C       -0.7924957923   -3.1691194913    4.4270581530
C        0.0484653383   -5.7902070070    3.8127790039
C       -0.5110398525   -4.9802659221    2.8086200235
C        1.4060280251   -0.7056417971    4.4417799888
C        0.2770703249   -0.6177839738    5.1553639018
O       -1.9174153193   -0.8275146391    3.6143771929
O       -2.1290477580   -1.3929742284    5.9856428788
S       -1.2765517802   -1.4461422823    4.7877277856
Cl       0.6084520635   -7.4105946957    3.4612419978
Cl      -0.6806525699   -5.5581498422    1.1647372997
H        2.1322388913   -3.6191960529   -0.0233482531
H        0.5353234586   -1.7155453680   -0.0256317205
H        3.4058200015   -4.1601373858    2.0374911591
H        0.2000915908   -0.3719126195    2.0222342798
H        3.0830360358   -2.8146162606    4.0875850073
H       -0.1653951935   -3.6185463857    6.4415546801
H        0.5815606803   -5.9155638690    5.8902903612
H       -1.3527827749   -3.0623525946    2.3454103925
H        2.2841227337   -0.2118298735    4.8453302677
H        0.2489755729   -0.0137717051    6.0492746427
29   

C        2.0058660948   -3.0173966667    0.8419779552
C        1.0975141642   -1.9562512050    0.8807618524
C        2.7354170156   -3.3488422249    1.9869294402
C        0.9136148629   -1.2341076488    2.0649819848
C        2.5541827753   -2.6220798176    3.1691645249
C       -0.2803907198   -3.9695836554    5.4410529955
C        0.1474846611   -5.2670951756    5.1477148934
C       -0.9390239128   -3.6917471200    3.1385430462
C        1.6336162947   -1.5642902764    3.2254498053
C       -0.8098097257   -3.1612052991    4.4306063053
C        0.0462057396   -5.7851266731    3.8503009607
C       -0.5121534157   -4.9893110152    2.8342875555
C        1.4256990953   -0.8172853644    4.4828525855
C        0.2570139186   -0.5880982184    5.0975551352
O       -1.9577073896   -0.8389874066    3.5931111748
O       -2.1332705455   -1.3617553885    5.9757350207
S       -1.2969987932   -1.4340557103    4.7674585603
Cl       0.6168242336   -7.4061874862    3.5195964700
Cl      -0.6689021731   -5.5856113838    1.1957588545
H        2.1428651236   -3.5826643237   -0.0732558370
H        0.5310459686   -1.6930105349   -0.0056070035
H        3.4390876156   -4.1731629287    1.9595092915
H        0.2028319847   -0.4135350562    2.0812735175
H        3.1216224337   -2.8949228886    4.0517307616
H       -0.1910923174   -3.5847991652    6.4532928602
H        0.5687483531   -5.8848144331    5.9318563611
H       -1.3611721267   -3.0812381182    2.3451810228
H        2.3212956815   -0.4531589230    4.9758576980
H        0.2095918008    0.1021312070    5.9258518095
29   

C        2.0454127933   -3.0038596402    0.8246833926
C        1.1179173072   -1.9606053383    0.8843993490
C        2.7789558767   -3.3465123724    1.9637077576
C        0.9186683025   -1.2678616021    2.0834586485
C        2.5821200203   -2.6495392125    3.1613482947
C       -0.2970605147   -3.9445752255    5.4543967715
C        0.1417115694   -5.2390969184    5.1638138119
C       -0.9605262900   -3.6784292701    3.1517666640
C        1.6419007246   -1.6102842881    3.2391436890
C       -0.8334334877   -3.1430317508    4.4421142923
C        0.0447855618   -5.7607911565    3.8674864773
C       -0.5216173027   -4.9724881044    2.8500816827
C        1.4140846867   -0.9000541771    4.5103590949
C        0.2256777130   -0.5425296280    5.0241797964
O       -2.0413554003   -0.8477057308    3.6165107820
O       -2.1177147827   -1.3336653079    6.0120098743
S       -1.3288064744   -1.4169174453    4.7729807657
Cl       0.6309745934   -7.3768875108    3.5397657362
Cl      -0.6725247896   -5.5731230395    1.2126223414
H        2.1945129146   -3.5462225189   -0.1024376318
H        0.5486787492   -1.6883615969    0.0025244555
H        3.4979806632   -4.1567409365    1.9195900487
H        0.1930810010   -0.4607716324    2.1143086521
H        3.1530167216   -2.9324668270    4.0384693442
H       -0.2103353900   -3.5563279299    6.4656018759
H        0.5687792394   -5.8513857803    5.9490736456
H       -1.3888495827   -3.0737979663    2.3571827763
H        2.2985529724   -0.6430934056    5.0842762188
H        0.1707709661    0.2408612662    5.7644293063
29   

C        2.1004507556   -3.0168033743    0.8191623533
C        1.1511819392   -1.9935999925    0.8806742555
C        2.8271239817   -3.3591086966    1.9626325003
C        0.9235391980   -1.3204723080    2.0857401622
C        2.6015347723   -2.6822630156    3.1667793134
C       -0.3173974227   -3.9387860396    5.4486815192
C        0.1291774415   -5.2253705456    5.1359275108
C       -1.0182712221   -3.6513027031    3.1595556509
C        1.6397857365   -1.6628277964    3.2464335943
C       -0.8752064228   -3.1298668020    4.4538761937
C        0.0191231810   -5.7316874590    3.8345643173
C       -0.5704317654   -4.9368844226    2.8354468707
C        1.3773105948   -0.9788394459    4.5233383938
C        0.1853130969   -0.5072739618    4.9364785143
O       -2.1748747819   -0.8581579315    3.7068374824
O       -2.0681481607   -1.3279572174    6.1051945441
S       -1.3724491886   -1.4097516955    4.8113919302
Cl       0.6184258852   -7.3367789551    3.4778730044
Cl      -0.7375972515   -5.5181499304    1.1926419595
H        2.2717691530   -3.5438064494   -0.1129597691
H        0.5871806336   -1.7220678129   -0.0047661758
H        3.5632165998   -4.1537628154    1.9167853257
H        0.1804128411   -0.5295820257    2.1172303028
H        3.1674372696   -2.9661839638    4.0467802512
H       -0.2192899959   -3.5615967788    6.4631344946
H        0.5735446608   -5.8429823845    5.9073049775
H       -1.4643032278   -3.0412661453    2.3789615998
H        2.2311490235   -0.8112291729    5.1718000249
H        0.1350025937    0.3730624453    5.5585787644
29   

C        2.2159815847   -3.0960849456    0.8618809271
C        1.2201570835   -2.1165926634    0.8824426195
C        2.9349304132   -3.3793400156    2.0261203463
C        0.9388626119   -1.4281624181    2.0673544320
C        2.6543713799   -2.6882082683    3.2104842300
C       -0.2940515274   -3.9445761141    5.4073772559
C        0.1525198729   -5.2094912858    5.0174061821
C       -1.1472663888   -3.5834660650    3.1810158390
C        1.6462131362   -1.7119363057    3.2490636939
C       -0.9270382148   -3.1086892180    4.4819918597
C       -0.0313522688   -5.6672633211    3.7066298955
C       -0.6984090994   -4.8469227208    2.7790891506
C        1.3243839411   -1.0170007913    4.5043598840
C        0.1282838398   -0.4729685229    4.8271813230
O       -2.3860001902   -0.8648611560    3.9773403534
O       -1.8971349117   -1.3594616049    6.3247345733
S       -1.4112127850   -1.4088173065    4.9367836589
Cl       0.5745719856   -7.2440779647    3.2493426145
Cl      -0.9582684844   -5.3679260352    1.1282706310
H        2.4296049281   -3.6344753870   -0.0548626088
H        0.6620440717   -1.8915589165   -0.0195527896
H        3.7080938990   -4.1392110392    2.0116350779
H        0.1606608378   -0.6716187313    2.0670767052
H        3.2155925774   -2.9270281884    4.1067083127
H       -0.1357890192   -3.6033011566    6.4271010676
H        0.6562900678   -5.8467533535    5.7343826612
H       -1.6530885374   -2.9524147538    2.4556242623
H        2.1360062564   -0.8841810820    5.2123514700
H        0.0776265776    0.5151995538    5.2575668985
29   

C        2.6769528778   -3.3423007902    1.2095418500
C        1.4367111545   -2.7072684701    1.1136491582
C        3.4648405176   -3.1557055512    2.3481319977
C        0.9840385302   -1.8921576912    2.1566486439
C        3.0073347126   -2.3449822734    3.3934401367
C       -0.1473042529   -3.9494777945    4.9855038436
C        0.1562915040   -5.1446147569    4.3320081328
C       -1.7287877933   -3.4167048289    3.2438809865
C        1.7560300269   -1.7111318615    3.3170730880
C       -1.0746683498   -3.0604209432    4.4313784234
C       -0.4659190096   -5.4830374859    3.1249736178
C       -1.4286444390   -4.6132603233    2.5794629537
C        1.2673555624   -0.8976570741    4.4350585254
C        0.0007845896   -0.4420834512    4.6481393599
O       -2.6472965980   -0.8558690464    4.7481416941
O       -1.3129641071   -1.5648044484    6.6815700697
S       -1.3825302856   -1.4441575034    5.2166551981
Cl      -0.0303275116   -6.9743875929    2.3196063462
Cl      -2.2405234904   -4.9904795928    1.0758171094
H        3.0269975523   -3.9755215951    0.4017955554
H        0.8223643585   -2.8475480030    0.2312646235
H        4.4307172142   -3.6426577880    2.4223900422
H        0.0209563903   -1.4034789060    2.0621986821
H        3.6298285961   -2.2185145286    4.2722151925
H        0.3543563632   -3.6998256810    5.9168001818
H        0.8921666732   -5.8169374478    4.7567557358
H       -2.4690004177   -2.7470170209    2.8145686897
H        2.0120117737   -0.5756474482    5.1559927089
H       -0.2001917134    0.6177692256    4.6289018516
29   

C        3.0106100494   -3.2112022118    1.1642684475
C        1.6684285249   -2.8281283310    1.1084067970
C        3.7865685419   -2.8578717770    2.2710476040
C        1.1046980108   -2.0933534017    2.1570351229
C        3.2185883096   -2.1300530908    3.3230280113
C       -0.2837918292   -3.9985080062    4.9701363612
C       -0.1003242087   -5.2144148895    4.3105050657
C       -1.9591201184   -3.3868320841    3.3459313785
C        1.8688635228   -1.7415967136    3.2828036226
C       -1.2007499511   -3.0626486084    4.4792519787
C       -0.8324448055   -5.5261972521    3.1592915579
C       -1.7799082070   -4.6043588682    2.6756110107
C        1.2769913305   -1.0028857039    4.3975854594
C       -0.0020855130   -0.5246148487    4.5430945662
O       -2.6424675500   -0.7913246130    4.9279902087
O       -1.1428570142   -1.5483857790    6.7284071176
S       -1.3654795570   -1.4326158144    5.2783610517
Cl      -0.5520611253   -7.0505775253    2.3465871752
Cl      -2.7258153041   -4.9465761050    1.2435776255
H        3.4485165329   -3.7786965012    0.3505342154
H        1.0618545570   -3.0998951998    0.2516983435
H        4.8300766162   -3.1491083343    2.3150469998
H        0.0634004508   -1.8006215946    2.0918683993
H        3.8368558431   -1.8688778916    4.1747701561
H        0.2999709247   -3.7726739694    5.8589017115
H        0.6248555270   -5.9257148062    4.6879876479
H       -2.6910839547   -2.6788613593    2.9663926347
H        1.9466467122   -0.7687142292    5.2190445338
H       -0.2404900372    0.4817961650    4.2367369604
29   

C        3.4365491741   -2.9928044331    1.0959570243
C        2.0396925443   -2.9561435615    1.1021384873
C        4.1498832484   -2.4219851416    2.1532318061
C        1.3587972309   -2.3449559220    2.1608871616
C        3.4670163920   -1.8190317159    3.2157472340
C       -0.4924767903   -4.1049134727    4.9853554121
C       -0.4781477740   -5.3502584507    4.3554562551
C       -2.1911693490   -3.3611433373    3.4421962692
C        2.0632571542   -1.7704198418    3.2319095748
C       -1.3390588595   -3.0920180672    4.5221493234
C       -1.3103748143   -5.6133117874    3.2612301658
C       -2.1821878780   -4.6078716091    2.8023945443
C        1.3546585436   -1.1353721192    4.3402092845
C        0.0527815110   -0.6746322947    4.4313703258
O       -2.5565965561   -0.7083198984    5.0328796962
O       -0.9771582137   -1.5576863555    6.7277627195
S       -1.3104751745   -1.4436780373    5.2988724073
Cl      -1.2485602234   -7.1827872041    2.4891522713
Cl      -3.2480208894   -4.8858734385    1.4422975463
H        3.9649960535   -3.4610334119    0.2728637425
H        1.4818955376   -3.4003074037    0.2852603223
H        5.2339425986   -2.4440365253    2.1491862235
H        0.2751175136   -2.3242746608    2.1487161507
H        4.0373178545   -1.3780960970    4.0259745206
H        0.1622244495   -3.9208016384    5.8336411951
H        0.1884852157   -6.1256847360    4.7145737587
H       -2.8694320795   -2.5905759502    3.0850976626
H        1.9435359716   -0.9851053336    5.2396602439
H       -0.2252329327    0.2107946493    3.8818926568
