22

C     -0.77575   -2.66004    2.06158
C     -0.70684   -1.34725    1.61881
C      0.47025   -2.06222   -0.38439
C      0.27038   -6.05422    0.94294
C     -0.22326   -3.70551    1.29185
C      0.40188   -3.39180    0.06135
C     -0.27808   -5.08699    1.72492
C     -0.08152   -1.05688    0.39352
C      0.99827   -4.44426   -0.78750
C     -0.97495   -6.64302    3.38977
N      0.87913   -5.72050   -0.26286
O      1.55880   -4.24762   -1.86875
O     -0.90052   -5.29999    2.92669
Cl    -0.00450    0.61013   -0.14951
H     -1.25614   -2.89309    3.00529
H     -1.13160   -0.54202    2.21019
H      0.95600   -1.85419   -1.33179
H      0.27248   -7.10691    1.19131
H     -1.49644   -6.60482    4.34668
H      0.02686   -7.06725    3.53677
H     -1.54105   -7.27216    2.69053
H      1.28448   -6.45297   -0.83457
