20

C     -3.00558   -2.56301    0.60468
C     -3.60898   -3.83313    0.86110
C     -1.79251   -2.82013    0.01310
C     -2.71047   -4.75885    0.40540
C     -0.88295    0.19504    0.47697
C      0.40479   -1.69383    0.64606
C     -0.66611   -1.94334   -0.44877
N     -1.08590   -0.57095   -0.66501
N     -2.76773   -6.18767    0.38802
O     -3.79426   -6.69486    0.86339
O     -1.35435    1.27636    0.73438
O     -1.80763   -6.80182   -0.08881
O     -1.60086   -4.16700   -0.11523
O     -0.02487   -0.48827    1.30221
H     -3.40988   -1.58721    0.83871
H     -4.56564   -4.04741    1.31565
H      0.46260   -2.49364    1.38403
H      1.38605   -1.52316    0.19363
H     -0.20697   -2.38505   -1.33818
H     -1.89675   -0.34725   -1.22866
