25

C     -5.45032   -0.56283   -3.24598
C     -4.58815   -1.57805   -2.80709
C     -3.61313    1.03919   -3.04680
C     -2.75612    0.02236   -2.60707
C     -4.93583    0.71990   -3.35367
C     -3.27186   -1.28287   -2.49704
C      1.87777    3.12392   -1.11428
C      1.07155    2.51978    0.02989
C      0.54946    1.42073   -1.91658
C     -0.90327    1.50329   -2.36881
O      1.16955    2.65531   -2.26984
O      0.68045    1.25261   -0.51146
O     -1.45027    0.19004   -2.27453
F     -5.74674    1.72537   -3.77744
F     -2.44519   -2.26864   -2.07594
H     -6.48658   -0.76229   -3.49614
H     -4.93305   -2.60213   -2.70365
H     -3.28182    2.06433   -3.15744
H      1.87852    4.21587   -1.13522
H      2.90962    2.75000   -1.12130
H      1.64877    2.33650    0.93837
H      0.19194    3.13247    0.27015
H      1.05043    0.57052   -2.39583
H     -0.93598    1.86273   -3.40464
H     -1.44927    2.20228   -1.72380
