31

C      8.45867   -3.88799   -1.79423
C      8.45705   -3.99224   -0.39980
C      7.36302   -3.31087   -2.45463
C      7.36537   -3.52191    0.33236
C      6.27003   -2.83918   -1.73261
C      2.08352   -0.95834    0.03207
C      0.95173   -0.57003    2.10374
C      0.96434   -0.47024    0.70166
C      6.27043   -2.94509   -0.32940
C      3.17188   -1.53282    0.71318
C      3.15225   -1.63049    2.13856
C      2.01831   -1.13525    2.79994
C     -1.38021    0.62201    0.73585
C     -0.18180    0.14302   -0.08711
N      5.21358   -2.49863    0.49760
N      4.21958   -1.97594   -0.09997
O      4.16238   -2.16893    2.83762
Br     1.94707   -1.24537    4.70791
H      9.30708   -4.25320   -2.36675
H      9.30298   -4.43824    0.11593
H      7.36709   -3.23114   -3.53860
H      7.34602   -3.59422    1.41644
H      5.41671   -2.39099   -2.22957
H      2.15034   -0.90932   -1.05209
H      0.10379   -0.20581    2.67250
H     -1.83783   -0.19788    1.29968
H     -2.14765    1.03823    0.07603
H     -1.09675    1.40511    1.44709
H      0.21070    0.98587   -0.66973
H     -0.52618   -0.59246   -0.82469
H      4.84589   -2.44682    2.16203
