24

C      0.81010    1.45409    1.40930
C     -0.26490    0.79044    0.83010
C      0.76166    1.89305    2.75070
C     -1.45421    0.52502    1.55647
C     -0.39850    1.63108    3.45027
C     -1.48682    0.96441    2.87877
C     -2.61350   -0.18195    0.95694
C     -2.01381    1.46813    5.00481
C     -3.00678   -1.52299   -2.41683
C     -3.46402   -1.22282   -1.00109
O     -3.65472   -0.43143    1.53797
O     -0.68450    1.95489    4.75767
O     -2.49010    0.84565    3.79993
O     -2.38133   -0.52593   -0.33587
H      1.70534    1.64067    0.82379
H     -0.21166    0.46014   -0.20040
H      1.59348    2.41233    3.21611
H     -1.98652    0.72366    5.80753
H     -2.66893    2.30835    5.25862
H     -2.77707   -0.60021   -2.95798
H     -2.11368   -2.15505   -2.41398
H     -3.80027   -2.05027   -2.95634
H     -3.69213   -2.13380   -0.44053
H     -4.35411   -0.58743   -0.98247
