24

C      0.72951    1.51172    1.34291
C     -0.19747    0.56918    0.91660
C      0.61390    2.12514    2.60957
C     -1.29395    0.18196    1.72620
C     -0.45660    1.74288    3.39199
C     -1.39608    0.79515    2.97363
C     -2.23774   -0.83433    1.19053
C     -1.97466    1.50139    5.03181
C     -5.23100   -2.26264    2.70070
C     -4.19936   -2.10399    1.59892
O     -2.12315   -1.35450    0.09226
O     -0.77732    2.19562    4.65341
O     -2.33775    0.61995    3.95531
O     -3.23594   -1.12003    2.05194
H      1.55752    1.78427    0.69553
H     -0.10793    0.09849   -0.05657
H      1.32894    2.86327    2.95897
H     -1.78411    0.90846    5.93285
H     -2.78174    2.22475    5.19168
H     -4.76191   -2.60547    3.62755
H     -5.73676   -1.31343    2.90031
H     -5.98253   -2.99946    2.39898
H     -4.64509   -1.75414    0.66344
H     -3.67273   -3.03951    1.38935
