18

C     -1.04920    0.45813    0.45555
C      0.38552    0.75044    2.34499
C      0.20581    0.80258    0.95828
C     -1.77352    0.05942    2.58811
C     -2.90143   -0.38647    3.51406
C     -4.92364    0.88190    2.69678
C     -4.28875   -0.50552    2.91601
N     -2.04072    0.09072    1.27278
N     -0.60195    0.37650    3.15820
O     -2.66817   -0.60877    4.68881
Br     1.62050    1.33040   -0.20018
H     -1.25825    0.48026   -0.61199
H      1.33857    1.01430    2.79988
H     -4.97749    1.44056    3.63643
H     -4.35078    1.46968    1.97420
H     -5.94106    0.77070    2.30983
H     -4.23589   -1.03385    1.96029
H     -4.88760   -1.09066    3.61803
