25

C     -0.79418   -6.37200   -4.25719
C     -1.50271   -5.72816   -3.23994
C      0.60353   -6.41598   -4.23552
C     -0.81748   -5.10863   -2.18935
C      1.27445   -5.80300   -3.18301
C      0.57989   -5.15157   -2.16597
C     -0.87650   -1.29676   -3.65170
C     -1.47747   -0.18941   -2.79141
C     -1.16943   -2.09958   -1.52694
C     -2.14698   -3.27195   -1.44777
O     -0.32059   -2.17275   -2.66555
O     -1.93966   -0.90239   -1.63547
O     -1.47432   -4.50197   -1.14470
F      2.62480   -5.82071   -3.13666
F      1.25851   -4.54823   -1.17489
H     -1.33246   -6.85596   -5.06660
H     -2.58865   -5.71025   -3.24160
H      1.17674   -6.91568   -5.00994
H     -1.64385   -1.81111   -4.24610
H     -0.06691   -0.96791   -4.30599
H     -0.71987    0.54999   -2.50275
H     -2.33207    0.31529   -3.24810
H     -0.52273   -2.07876   -0.64233
H     -2.71083   -3.34918   -2.38461
H     -2.84537   -3.10058   -0.62578
