19

C      2.37831   -2.51187    5.07196
C      1.50985   -0.76906    1.26073
C      1.80632   -1.34074    2.49806
C     -0.66028   -0.20843    2.14329
C      0.25265   -0.19375    1.08489
C      0.83514   -1.31404    3.50808
C      0.43323   -1.24265    6.08575
C     -0.09835   -2.55155    5.60758
C      1.08268   -1.90913    4.86266
N      3.42295   -2.99804    5.24147
N     -0.37230   -0.75680    3.32612
Br    -0.23142    0.61022   -0.58024
H      2.23927   -0.77259    0.45685
H      2.77478   -1.79813    2.67290
H     -1.64749    0.23406    2.03062
H     -0.13952   -0.35088    5.85605
H      1.02579   -1.21688    6.99396
H      0.12012   -3.44736    6.17893
H     -1.03095   -2.54616    5.05415
