21

C     -0.20318    1.56546    0.85094
C     -0.66621   -1.54139    1.09528
C     -2.16039   -1.53460    1.39407
C     -2.43624    0.53144    0.30749
C     -0.94888    0.58127   -0.06804
C      1.78559    2.00148    2.05196
N     -0.42308   -0.77987   -0.13937
O     -0.62409    2.66351    1.15681
O     -2.64582   -0.19580    1.51343
O      1.01270    1.10212    1.22747
H     -0.12537   -1.12942    1.96194
H     -0.32797   -2.57182    0.94047
H     -2.70495   -2.05791    0.59340
H     -2.37065   -2.02502    2.34789
H     -2.81888    1.53833    0.47495
H     -2.98572    0.05849   -0.51920
H     -0.88209    1.03125   -1.06769
H      2.71850    1.47768    2.25960
H      1.24894    2.21880    2.97804
H      1.97605    2.93571    1.51890
H      0.57441   -0.75169   -0.33243
