28

C      2.66394   -4.53549    0.28590
C      2.43140   -5.90092    0.09376
C      0.71262   -4.01916   -1.02927
C      1.81137   -3.57760   -0.28022
C      0.46007   -5.37917   -1.23585
C      1.34523   -6.30651   -0.66897
C     -3.27096   -4.44063   -3.00437
C     -3.40632   -5.47759   -4.11646
C     -2.86698   -6.52365   -2.12824
C      2.07092   -2.09851   -0.10382
C     -1.48623   -6.74817   -1.52790
O     -3.39716   -5.24097   -1.82135
O     -2.80893   -6.64626   -3.54489
O     -0.60309   -5.73074   -2.02299
F      1.14178   -7.63738   -0.87630
H      3.51716   -4.21908    0.88011
H      3.08762   -6.65568    0.51714
H      0.01795   -3.30819   -1.46930
H     -2.29278   -3.94854   -3.03007
H     -4.07044   -3.69622   -2.99611
H     -4.45895   -5.67183   -4.36187
H     -2.85690   -5.22089   -5.02541
H     -3.55631   -7.27248   -1.71088
H      2.53321   -1.67133   -1.00171
H      1.14225   -1.54873    0.07860
H      2.74500   -1.91033    0.73645
H     -1.12574   -7.74294   -1.80667
H     -1.56238   -6.68410   -0.43682
