20

C      0.88683    1.08927    3.44900
C     -0.76829    2.57121    2.58134
C      0.08532    2.22018    3.62560
C     -0.04098    0.76218    1.38453
C      0.02412   -1.52799    0.22936
C     -0.86557    0.45668   -1.07629
C      0.62287    0.58316   -1.09657
C     -0.05716   -0.03823    0.12383
N      0.83155    0.36814    2.32933
N     -0.83511    1.84084    1.46321
O      0.46116   -2.26299   -0.63757
O     -0.53270   -2.00385    1.37092
Br     0.16787    3.25106    5.22781
H      1.58777    0.76866    4.21741
H     -1.40897    3.44853    2.64480
H     -1.46374    1.34219   -0.89645
H     -1.31757   -0.31236   -1.69356
H      1.19503   -0.10286   -1.71158
H      1.05479    1.56707   -0.94454
H     -0.44894   -2.97553    1.32645
