52

C     -2.54314   -0.22390    1.82699
C     -2.75224    0.88881    0.99130
C     -1.35219   -0.93024    1.73862
C     -1.77573    1.29946    0.08854
C     -0.35440   -0.54053    0.82330
C     -0.57162    0.58897    0.01015
C      0.86547   -1.35019    0.65793
C      1.71056    0.56957   -0.66350
C      1.75127   -0.97421   -0.54404
C      3.44559    3.30274   -2.86088
C      1.52706   -3.93159   -4.31082
C      6.52494   -0.83631   -0.36138
C      2.55586    1.17789   -1.77723
C      1.13630   -1.61845   -1.82016
C      3.18265   -1.50924   -0.33822
C      2.57700    2.71131   -1.74621
C      0.79162   -3.09971   -1.67180
C      3.93307   -0.89229    0.84030
O      1.13864   -2.30325    1.38067
O     -0.37005   -5.15146   -2.91361
O     -0.81595   -2.78768   -3.78666
O      6.17847   -1.02314    2.26205
O      5.55792   -3.02647    0.79082
O      0.35886    1.02856   -0.88282
S      0.09799   -3.78851   -3.20795
S      5.61244   -1.57319    1.02036
H     -3.31307   -0.53054    2.52855
H     -3.68553    1.44245    1.05237
H     -1.16359   -1.80504    2.35375
H     -1.92007    2.16319   -0.55335
H      2.02808    0.99390    0.30067
H      4.48475    2.96180   -2.78139
H      3.45113    4.39655   -2.82005
H      3.07445    3.00877   -3.84922
H      1.14161   -4.37183   -5.23235
H      1.93852   -2.94195   -4.51318
H      2.26628   -4.59335   -3.85678
H      7.54886   -1.20159   -0.26250
H      6.09916   -1.17180   -1.30781
H      6.50310    0.25076   -0.26922
H      3.58174    0.80389   -1.68650
H      2.17677    0.83416   -2.74596
H      1.85470   -1.48402   -2.63528
H      0.23125   -1.08191   -2.11036
H      3.74174   -1.35989   -1.26697
H      3.13397   -2.58460   -0.16199
H      1.55276    3.08637   -1.83193
H      2.95060    3.04640   -0.76955
H      1.63781   -3.73457   -1.39927
H     -0.00243   -3.27270   -0.94079
H      4.06433    0.19091    0.77980
H      3.45174   -1.13403    1.79147
