18

C      0.85472    1.96701   -0.32346
C      2.03185    1.76606    0.39252
C      1.37931   -0.50953    0.94843
C     -0.06518    0.91839   -0.40173
C      2.29963    0.53746    1.02756
C      0.20599   -0.28734    0.22602
C     -2.04410   -0.13849   -1.04939
O     -0.72810   -2.53749   -0.91149
O     -1.86863   -1.69381    1.19924
O     -1.25423    1.04285   -1.09352
O      3.48743    0.44025    1.70784
S     -1.13610   -1.42246   -0.04552
H      0.64673    2.91308   -0.81342
H      2.76913    2.55878    0.47429
H      1.56064   -1.46815    1.42899
H     -2.99437    0.06222   -0.55107
H     -2.18003   -0.53856   -2.05593
H      3.56561   -0.44273    2.10259
