25   

C       -0.2504551913   -5.5679614532   -3.7764075204
C        0.0290363668   -4.7719895926   -2.5896858676
C       -0.4835184835   -4.7866759151   -4.8776838492
C       -0.0367895204   -1.0304090982   -1.8531981005
C        0.2404608229   -2.3720519471   -1.8595235012
C       -0.0001617853   -3.4173698093   -2.8393193816
C        0.4316372260   -0.5486193522   -0.5666784025
C       -2.2092283371   -0.3180665401   -2.9183634480
C        0.3236569528    0.8438999311   -0.0186063222
C       -0.6902067593   -0.1639811545   -2.9123516604
N        0.9349379198   -1.5386518130    0.1219228365
N        0.8188893528   -2.6537362351   -0.6506856914
O       -2.7629318399   -0.5452277242   -3.9816796721
O       -2.8733270654   -0.1658231762   -1.7448444430
S       -0.3707744533   -3.0698988982   -4.5109459257
H       -0.2747166893   -6.6523997075   -3.7878021340
H        0.2249692199   -5.2139911610   -1.6205848188
H       -0.7142542340   -5.1694598815   -5.8652101400
H       -0.5615576717    1.3464505634   -0.4163866174
H        0.2501070436    0.8115251441    1.0722570664
H        1.2137663499    1.4163447926   -0.2923243429
H       -0.2852111962   -0.3952824661   -3.8995098908
H       -0.4588724095    0.8871419399   -2.7265214174
H        1.1460910782   -3.5775318765   -0.3806763944
H       -3.8129681095   -0.3151437160   -1.9369160849
25   

C       -0.2744495406   -5.4344211411   -3.9999593543
C       -0.1264778855   -4.6762826863   -2.7657675400
C       -0.1230512408   -4.6448938864   -5.1103652195
C        0.0501261734   -1.0059954179   -1.9044897388
C        0.3398292724   -2.3406023283   -1.9612229066
C        0.1325320198   -3.3438956784   -2.9927386050
C        0.4830047101   -0.5777830520   -0.5870309638
C       -2.1220214469   -0.2705734008   -2.8984467962
C        0.3629200761    0.7918998794    0.0133924900
C       -0.6051447255   -0.1181018306   -2.9408042118
N        0.9642546702   -1.5976647830    0.0748321746
N        0.8747282051   -2.6797696321   -0.7478975860
O       -2.6659050433   -0.9484125728   -3.7547173012
O       -2.7974717147    0.4067417241   -1.9365326976
S        0.2027502305   -2.9659761450   -4.6950898536
H       -0.4852236799   -6.4978014917   -4.0372096281
H       -0.2273465594   -5.1187630487   -1.7819356900
H       -0.1983035414   -5.0007257675   -6.1313929267
H       -0.4862623640    1.3294023288   -0.4156062024
H        0.2217904462    0.7142686225    1.0952386074
H        1.2778598850    1.3581730352   -0.1791829319
H       -0.2362896634   -0.3471238678   -3.9421011370
H       -0.3550020785    0.9281017286   -2.7490844116
H        1.2016511660   -3.6143872176   -0.5152752149
H       -3.7357218072    0.1844461862   -2.0506023739
25   

C       -0.3265366751   -5.3500208352   -4.0063181357
C       -0.2675090849   -4.5767177190   -2.7738076834
C        0.1041454619   -4.6271520493   -5.0898363501
C        0.0754104642   -0.9728891460   -1.8954654133
C        0.3992661791   -2.2969924972   -1.9443949881
C        0.2026457551   -3.3020727775   -2.9789424208
C        0.5052007259   -0.5257419511   -0.5830953755
C       -2.1429224109   -0.2458622123   -2.7719925654
C        0.4014582790    0.8545090478   -0.0042920818
C       -0.6314330296   -0.1373457225   -2.9403755163
N        1.0327480961   -1.5265246131    0.0745086566
N        0.9749828727   -2.6141193461   -0.7450194134
O       -2.7615956710   -0.9905361868   -3.5145192346
O       -2.7314366171    0.5360353350   -1.8326459726
S        0.5926513949   -2.9929134980   -4.6525641157
H       -0.6753735629   -6.3755938253   -4.0620383689
H       -0.5737828550   -4.9606606587   -1.8075891484
H        0.1387942525   -5.0063787278   -6.1046257908
H       -0.5076852275    0.9284915707    0.5984894164
H        1.2624758975    1.0544044324    0.6397877965
H        0.3640649844    1.6091001446   -0.7927153508
H       -0.3518092571   -0.4537327620   -3.9469879961
H       -0.3422877928    0.9116215316   -2.8463409068
H        1.3376302028   -3.5372907093   -0.5178987128
H       -3.6795445885    0.3277215960   -1.8566752506
25   

C       -0.3868114099   -5.3231388833   -4.0427356486
C       -0.4136179676   -4.5367237117   -2.8170918802
C        0.2882251579   -4.6838740269   -5.0527146032
C        0.0356037607   -1.0258474934   -1.8701228364
C        0.4144036417   -2.3321734013   -1.9144152642
C        0.2384271745   -3.3374744119   -2.9568747610
C        0.4886815023   -0.5438077625   -0.5791265694
C       -2.2210766699   -0.3064765171   -2.6435685952
C        0.3465607399    0.8407157134   -0.0200759415
C       -0.7228420649   -0.2472750944   -2.9207582857
N        1.0820387835   -1.5132164340    0.0708055212
N        1.0454399433   -2.6131347011   -0.7350036433
O       -2.8915274714   -1.1381510752   -3.2331536294
O       -2.7422080810    0.6060610708   -1.7861085179
S        0.9110374363   -3.1131745276   -4.5547314065
H       -0.8511741983   -6.2979553809   -4.1461717172
H       -0.9019851163   -4.8540179712   -1.9026853232
H        0.4238845172   -5.0882443494   -6.0491718899
H       -0.5140267611    0.8749345159    0.6532352948
H        1.2424365933    1.1066412188    0.5480238523
H        0.1988896069    1.5717150395   -0.8179567928
H       -0.5225577184   -0.6498042324   -3.9165729074
H       -0.4014610282    0.7969334678   -2.9228331899
H        1.4505900563   -3.5195211774   -0.5110361568
H       -3.6914394251    0.4112641720   -1.7222040447
25   

C       -1.1548683692   -5.0803384760   -4.3763457209
C       -1.3392838815   -4.2681427851   -3.1813382737
C        0.0925773202   -4.9164967317   -4.9266226815
C       -0.0820448572   -1.2525727775   -1.7344374730
C       -0.0727358126   -2.6112370407   -1.7546113880
C       -0.2230728286   -3.5303678158   -2.8823393920
C        0.1186372357   -0.8923147902   -0.3444996830
C       -1.7428211212    0.0915035385   -3.0121572961
C        0.2150157307    0.4884586672    0.2325903875
C       -0.2793752324   -0.3244865666   -2.9097373381
N        0.2283063068   -1.9773128929    0.3805525758
N        0.1138398266   -3.0380588155   -0.4703214631
O       -2.4990668461   -0.5925942905   -3.6824887767
O       -2.1222683860    1.2303941655   -2.3812069080
S        1.0835100374   -3.7768030735   -4.0191036225
H       -1.9181861407   -5.7327444732   -4.7865841578
H       -2.2551118246   -4.2334437948   -2.6018274986
H        0.4368738010   -5.4224193689   -5.8212450724
H       -0.7486283567    0.7713136481    0.6643260175
H        0.9693897783    0.5091647052    1.0241317628
H        0.4834464321    1.2152408640   -0.5373660325
H        0.0228056691   -0.8166478358   -3.8381781346
H        0.3415683739    0.5673737597   -2.7947974258
H        0.1726242408   -4.0180994295   -0.2016405634
H       -3.0751201577    1.3282137310   -2.5414320799
25   

C       -1.1347521862   -4.9026553083   -4.4571017029
C       -1.3159118976   -4.0385179895   -3.2987066518
C        0.1878011824   -5.0365642575   -4.8023105518
C       -0.0428690697   -1.2804484173   -1.7033930282
C        0.0409160556   -2.6362598419   -1.6980115104
C       -0.1225733426   -3.5723850782   -2.8116490179
C        0.1598851680   -0.8805679579   -0.3253527047
C       -1.8001062496   -0.0157379041   -2.9349602259
C        0.1935910500    0.5166994364    0.2177537183
C       -0.3225381486   -0.3921668682   -2.8922270778
N        0.3310192057   -1.9430187888    0.4205640077
N        0.2551344671   -3.0261930215   -0.4066000802
O       -2.5987429438   -0.8303656072   -3.3697193294
O       -2.1502099707    1.2219202317   -2.5056909744
S        1.2566299066   -4.1259307267   -3.7376274757
H       -1.9529382533   -5.3753319402   -4.9897444320
H       -2.2798628487   -3.7655460623   -2.8822870698
H        0.5438274620   -5.6292361869   -5.6370638463
H       -0.7781488622    0.7620815615    0.6542236897
H        0.9544033559    0.5937752311    0.9995700674
H        0.4174671709    1.2364851321   -0.5728872604
H       -0.0548615562   -0.9046925495   -3.8204079045
H        0.2821960568    0.5163575533   -2.8331387581
H        0.3464948617   -3.9975318395   -0.1161170512
H       -3.1163340468    1.2783693860   -2.5877993098
25   

C       -1.1370437879   -4.8438384903   -4.5313220118
C       -1.3011813051   -3.9013330080   -3.4332313808
C        0.1712245853   -5.2276083684   -4.6944857585
C       -0.0548006135   -1.3160878489   -1.7353521205
C        0.0752670196   -2.6694887443   -1.7163071596
C       -0.1133948575   -3.6243547523   -2.8065492069
C        0.1845900817   -0.8909678802   -0.3705289384
C       -1.8692163808   -0.0475767716   -2.8937873578
C        0.1930946442    0.5140449608    0.1533339069
C       -0.3963333809   -0.4446278393   -2.9217201264
N        0.4177753786   -1.9363847580    0.3821395835
N        0.3474586871   -3.0328222863   -0.4275135627
O       -2.6966186708   -0.8436125409   -3.3083300944
O       -2.1834275949    1.1895365247   -2.4366002979
S        1.2461820053   -4.4653622591   -3.5249730045
H       -1.9552264556   -5.1923461713   -5.1523975732
H       -2.2468270963   -3.4493031736   -3.1526550083
H        0.5144243634   -5.9175946494   -5.4567163840
H       -0.7724772783    0.7372905265    0.6146913617
H        0.9735464106    0.6240694546    0.9114701753
H        0.3727194369    1.2289174373   -0.6529517574
H       -0.1841121250   -0.9743437071   -3.8545978744
H        0.2208935568    0.4574180826   -2.9117694591
H        0.4749642896   -3.9968378694   -0.1263748247
H       -3.1510994204    1.2616189159   -2.4803988827
25   

C       -1.1296586248   -4.8076539174   -4.5967475072
C       -1.2841857164   -3.7904940385   -3.5660821619
C        0.1195630418   -5.3762242700   -4.5814781898
C       -0.1149965925   -1.3224208605   -1.7430141634
C        0.0481214302   -2.6742984023   -1.7347131845
C       -0.1481538487   -3.6357111447   -2.8124791643
C        0.1736492150   -0.8961192657   -0.3873624315
C       -1.9697039808   -0.0225571567   -2.8173144596
C        0.1763178924    0.5065609255    0.1431874810
C       -0.5051027823   -0.4417801199   -2.9089482466
N        0.4672408001   -1.9369809686    0.3497357307
N        0.3895953636   -3.0320217950   -0.4603460692
O       -2.8190265483   -0.7650752254   -3.2827786662
O       -2.2518564680    1.1812459175   -2.2615378977
S        1.1479569273   -4.7021112598   -3.3202999035
H       -1.9123876807   -5.0775081427   -5.2976009636
H       -2.1904924973   -3.2151858629   -3.4138973018
H        0.4464123999   -6.1504585410   -5.2660511629
H       -0.7764002672    0.7110963336    0.6386718324
H        0.9807089296    0.6269638090    0.8742579070
H        0.3157049152    1.2281896703   -0.6650290622
H       -0.3377226307   -0.9671386446   -3.8532548108
H        0.1222566123    0.4532221061   -2.9225345926
H        0.5560815376   -3.9929726866   -0.1685678427
H       -3.2185452700    1.2744504930   -2.2834163403
25   

C       -1.0829421854   -4.7439428801   -4.6934567304
C       -1.2131114055   -3.6693873757   -3.7194852107
C        0.0655301826   -5.4719100670   -4.5118855581
C       -0.1438453435   -1.3209854538   -1.7429451125
C        0.0384130219   -2.6726883389   -1.7614108733
C       -0.1577160718   -3.6249228291   -2.8423469620
C        0.1976111078   -0.9095313224   -0.3940540494
C       -2.0344475279   -0.0052855678   -2.7474119339
C        0.2076319522    0.4843200716    0.1599243655
C       -0.5692779268   -0.4138583781   -2.8773459635
N        0.5431294879   -1.9546888669    0.3129078439
N        0.4490549507   -3.0383987112   -0.5094492126
O       -2.8786461025   -0.6726295802   -3.3226416381
O       -2.3210583930    1.1170590580   -2.0435732787
S        1.0243376134   -4.8811960863   -3.1584293583
H       -1.8116948294   -4.9413330410   -5.4723604399
H       -2.0539201654   -2.9872767738   -3.6890090592
H        0.3583860241   -6.3146561825   -5.1274800179
H       -0.7314625304    0.6745485537    0.6861221602
H        1.0324252663    0.5980573312    0.8690258689
H        0.3191734655    1.2206688167   -0.6391697127
H       -0.4118816250   -0.9091237374   -3.8392648492
H        0.0490637300    0.4873951111   -2.8793511499
H        0.6500490408   -3.9993050050   -0.2401341400
H       -3.2871391102    1.2163346895   -2.0658735199
25   

C       -0.9864108541   -4.6801284356   -4.7579511583
C       -1.0903321803   -3.5496994472   -3.8463849321
C        0.0190867718   -5.5413629290   -4.4025655249
C       -0.1845912364   -1.2878801763   -1.7283662882
C        0.0185843682   -2.6392502899   -1.7586590364
C       -0.1543661962   -3.5911959605   -2.8407439155
C        0.1827223961   -0.8766668646   -0.3851886361
C       -2.1099874649   -0.0153747936   -2.7325047938
C        0.1802443083    0.5121868419    0.1825110811
C       -0.6278155768   -0.3645403896   -2.8442270137
N        0.5713221896   -1.9167551494    0.3052612907
N        0.4794530155   -2.9966102015   -0.5210043851
O       -2.9030603069   -0.6070621259   -3.4465032921
O       -2.4657332612    0.9826990949   -1.8873118678
S        0.8702058162   -5.0100136487   -2.9568834712
H       -1.6337544241   -4.8218598148   -5.6168053401
H       -1.8398827416   -2.7761500272   -3.9493308570
H        0.2682754167   -6.4469140391   -4.9437158245
H       -0.7516734860    0.6810829261    0.7283618478
H        1.0164114375    0.6330600656    0.8769835886
H        0.2640300218    1.2593803687   -0.6096080713
H       -0.4257697361   -0.8180979389   -3.8179171158
H       -0.0488623719    0.5614729814   -2.8067716331
H        0.7149739491   -3.9528186680   -0.2632510983
H       -3.4322468706    1.0607595637   -1.9449168948
25   

C       -0.8523183208   -4.6553283090   -4.8093999818
C       -0.9032951166   -3.4792198858   -3.9531641633
C       -0.0364643460   -5.6307198520   -4.3011464990
C       -0.1852865367   -1.2900154111   -1.7078539662
C        0.0450753445   -2.6406706168   -1.7512960624
C       -0.1159560001   -3.5971241929   -2.8306256015
C        0.2467947887   -0.8688021628   -0.3863182080
C       -2.1809196938   -0.1591182761   -2.7712418215
C        0.2174155727    0.5127358509    0.1990845879
C       -0.6652098414   -0.3498600434   -2.7958675031
N        0.6822366933   -1.8996985800    0.2871186649
N        0.5616383153   -2.9819931210   -0.5301132305
O       -2.8374505554   -0.6069098885   -3.6971943949
O       -2.7178693834    0.5531115130   -1.7507228422
S        0.6943266646   -5.1524908094   -2.7749291295
H       -1.4032554404   -4.7466140765   -5.7394277844
H       -1.5217795969   -2.6241594273   -4.1850180110
H        0.1424312409   -6.5883243157   -4.7765010602
H       -0.4887014739    1.1520058561   -0.3347483134
H       -0.0743748323    0.4635985965    1.2518677505
H        1.2144954246    0.9565630310    0.1372743134
H       -0.3469460468   -0.7109370691   -3.7769657136
H       -0.1969574230    0.6287826936   -2.6636490232
H        0.8254902461   -3.9328357071   -0.2801550089
H       -3.6777591128    0.5674613976   -1.8974337434
25   

C       -0.7407285862   -4.6501853082   -4.9982797753
C       -0.6693352790   -3.4512294679   -4.1759142521
C       -0.2114060745   -5.7433941695   -4.3676602022
C       -0.0985910896   -1.3712614307   -1.7892531407
C        0.1230669007   -2.7236446444   -1.8674474981
C       -0.0799948880   -3.6698881101   -2.9498637425
C        0.3613599561   -0.9787421315   -0.4687808998
C       -2.1432262687   -0.3523572670   -2.8614874575
C        0.3148848230    0.3865308234    0.1526134112
C       -0.6177001978   -0.3947757909   -2.8258006483
N        0.8187308856   -2.0213703500    0.1694187835
N        0.6795215568   -3.0844241560   -0.6690756187
O       -2.7108663309   -0.7329752508   -3.8725030575
O       -2.7906405720    0.1606902726   -1.7865805857
S        0.3894535653   -5.3516370482   -2.7632071763
H       -1.1712678858   -4.6717177029   -5.9937543855
H       -1.0666038446   -2.5068917260   -4.5172177770
H       -0.1665707912   -6.7371157203   -4.7983170997
H       -0.4937837415    0.9823659679   -0.2773380644
H        0.1547119429    0.2998833761    1.2310609097
H        1.2656678861    0.8985951629   -0.0175130987
H       -0.2175674097   -0.6367476119   -3.8126534073
H       -0.2575441181    0.6110444729   -2.5969114824
H        0.9533832699   -4.0391811666   -0.4463390998
H       -3.7404096356    0.0998792827   -1.9793131616
25   

C       -0.7853475733   -4.5216254252   -4.9223029223
C       -0.5014751301   -3.3105761427   -4.1662150794
C       -0.6781392564   -5.6496787170   -4.1534248306
C       -0.0527091520   -1.2436987622   -1.7457019578
C        0.1362986170   -2.5998858606   -1.8109688338
C       -0.1963372879   -3.5602435353   -2.8467708235
C        0.4621768099   -0.8451077361   -0.4480880206
C       -2.1560164358   -0.5749566022   -2.9885584968
C        0.4541432436    0.5273210437    0.1583486041
C       -0.6701516314   -0.3037064096   -2.7627676211
N        0.9165120810   -1.8908134118    0.1889725423
N        0.7181172877   -2.9630919081   -0.6264854747
O       -2.5523324990   -0.6623246106   -4.1397600436
O       -2.9640755548   -0.6902909061   -1.9057555234
S       -0.2327103272   -5.2787351269   -2.4934267885
H       -1.0527768105   -4.5255024780   -5.9736308819
H       -0.5294186575   -2.3303292217   -4.6216396956
H       -0.8484455021   -6.6566379106   -4.5167470428
H       -0.4430135835    1.0744926263   -0.1416797191
H        0.4732365858    0.4546978946    1.2497124685
H        1.3379540153    1.0797610680   -0.1714880777
H       -0.1270957992   -0.3733573988   -3.7079845358
H       -0.5686331966    0.7305040919   -2.4276645568
H        0.9649179976   -3.9232777696   -0.3958190461
H       -3.8530881243   -0.8892778728   -2.2407170224
25   

C       -0.7690677114   -4.4296013256   -4.9232448083
C       -0.3358232284   -3.2590387427   -4.1740373778
C       -0.9690155899   -5.5179117077   -4.1137052093
C       -0.0274409025   -1.2087211126   -1.7176024254
C        0.1613939949   -2.5610809937   -1.7944851607
C       -0.2312951121   -3.5034631077   -2.8252391934
C        0.5334342523   -0.8192610856   -0.4367273990
C       -2.1502640708   -0.7627096062   -3.0487810584
C        0.6092888195    0.5600606013    0.1483728742
C       -0.7370610327   -0.2964766453   -2.7005138485
N        1.0229203647   -1.8682918404    0.1710487388
N        0.8019533340   -2.9364345373   -0.6457055590
O       -2.4887703514   -0.7191285405   -4.2208234071
O       -2.9582408415   -1.1984859197   -2.0505508407
S       -0.6409137237   -5.1594570859   -2.4221238179
H       -0.9189288885   -4.4350252402   -5.9976318971
H       -0.1208178234   -2.3046482685   -4.6390220734
H       -1.2946615687   -6.4899812003   -4.4658403588
H       -0.2907006877    0.7559795329    0.7375848584
H        1.4799939277    0.6400204815    0.8056171734
H        0.6903421851    1.3118643173   -0.6401161553
H       -0.1423650374   -0.2155181723   -3.6139185671
H       -0.8213063065    0.7084550522   -2.2818928358
H        1.0638992888   -3.8974582362   -0.4362493205
H       -3.7851470359   -1.4878033154   -2.4680197323
25   

C       -0.6952489074   -4.4242984677   -4.9417316273
C       -0.1751124627   -3.2847198269   -4.1997107788
C       -1.1201371894   -5.4318570229   -4.1128908610
C       -0.0601445728   -1.1822944636   -1.7454139574
C        0.1718113997   -2.5252711840   -1.8187964623
C       -0.2252845715   -3.4783871825   -2.8413467857
C        0.5402597419   -0.7648668902   -0.4920907555
C       -2.1950516791   -0.8966950720   -3.1114011600
C        0.5879307580    0.6206320444    0.0805928329
C       -0.8360483652   -0.3163586808   -2.7200648471
N        1.1001347438   -1.7911113236    0.0958295131
N        0.8860729557   -2.8729405894   -0.7059712785
O       -2.5118618017   -0.8517336542   -4.2894770911
O       -2.9816110245   -1.4297022896   -2.1436792902
S       -0.9040541626   -5.0346939348   -2.4109173784
H       -0.7464269278   -4.4654108109   -6.0245231670
H        0.1983179770   -2.3807103552   -4.6669210187
H       -1.5454093779   -6.3674754458   -4.4574232574
H       -0.2692245661    0.7711996114    0.7424642332
H        1.5042846074    0.7524523358    0.6631140356
H        0.5611705068    1.3698827925   -0.7140105193
H       -0.2355932408   -0.1666956833   -3.6212597511
H       -1.0156676384    0.6670448387   -2.2803818069
H        1.1975302040   -3.8216649491   -0.5084630285
H       -3.7666277511   -1.7852753958   -2.5897640619
25   

C       -0.6373583864   -4.4349296177   -4.9178450085
C       -0.0369248305   -3.3467745686   -4.1590739505
C       -1.2813246198   -5.3374395827   -4.1085286576
C       -0.0931478985   -1.1905206496   -1.6999294562
C        0.1652545316   -2.5261101571   -1.7853742145
C       -0.2430742693   -3.4791156316   -2.8092347801
C        0.5559754547   -0.7613857406   -0.4755505976
C       -2.2418654099   -0.9910592981   -3.0638618826
C        0.5965939109    0.6244359897    0.0964947172
C       -0.9194686270   -0.3452897788   -2.6507385046
N        1.1742773378   -1.7739453209    0.0779405401
N        0.9510404605   -2.8592106317   -0.7174584571
O       -2.5392396857   -0.9679319243   -4.2476310708
O       -3.0227951880   -1.5495133356   -2.1061308386
S       -1.1802111809   -4.9024618420   -2.4046294485
H       -0.5888358901   -4.5145939873   -5.9985768288
H        0.4942930653   -2.5142885990   -4.6065591370
H       -1.8001004993   -6.2184023821   -4.4686341009
H       -0.2196536262    0.7472152551    0.8134488521
H        1.5444732726    0.7851116664    0.6181391811
H        0.4936610374    1.3726409589   -0.6928982144
H       -0.3279883417   -0.1391077001   -3.5469246798
H       -1.1543550229    0.6137148525   -2.1837083362
H        1.3009819916   -3.7990968314   -0.5433765685
H       -3.7806410830   -1.9451276925   -2.5652756272
25   

C        0.3501627396   -4.9166091919   -4.5071979841
C        0.7878714463   -3.9189739267   -3.5405562080
C       -0.9394907302   -5.3274714008   -4.2774290425
C       -0.0715003216   -1.2857804343   -1.6169080804
C       -0.0743647676   -2.6433029655   -1.5445381946
C       -0.1865183346   -3.6273783162   -2.6204938810
C        0.0796014081   -0.8326815009   -0.2477891488
C       -1.6735775608   -0.0325159137   -3.0575023312
C        0.1615380159    0.5833236446    0.2392108758
C       -0.2167061142   -0.4378168833   -2.8591727918
N        0.1570372717   -1.8663313058    0.5522444392
N        0.0607877156   -2.9818403793   -0.2278357444
O       -2.3655738818   -0.6945524589   -3.8133957339
O       -2.1129437913    1.0809345550   -2.4197369119
S       -1.6624047406   -4.5246226429   -2.8858655048
H        0.9688611566   -5.2857584106   -5.3180435303
H        1.7649398298   -3.4491606593   -3.5472553533
H       -1.4656481966   -6.0581346145   -4.8808705974
H       -0.8172499797    0.8973627532    0.6114075067
H        0.8831382025    0.6546136754    1.0578532633
H        0.4644839752    1.2562902422   -0.5659571539
H        0.1283383194   -0.9890944851   -3.7381149329
H        0.3963458363    0.4627492157   -2.7750124518
H        0.0781792391   -3.9415677034    0.1111937988
H       -3.0525800515    1.1739794147   -2.6471405635
25   

C        0.4226501115   -5.0570700169   -4.4137364224
C        0.8776458867   -4.0991823858   -3.4153059245
C       -0.9374459178   -5.2396822978   -4.3718376491
C       -0.0959740845   -1.2652127015   -1.6428171985
C       -0.0346463348   -2.6213253610   -1.5858038933
C       -0.1577080707   -3.6046496031   -2.6641894282
C        0.0889345841   -0.8197928983   -0.2754355713
C       -1.7896100645   -0.0314806049   -2.9977990857
C        0.1314702076    0.5939721844    0.2226671384
C       -0.3187928852   -0.4150481704   -2.8717591366
N        0.2410786595   -1.8572802782    0.5092747300
N        0.1620425807   -2.9684091474   -0.2791674586
O       -2.5097979590   -0.7077745278   -3.7136836820
O       -2.2117512647    1.0801787891   -2.3454819947
S       -1.7084757157   -4.2621263553   -3.1254285048
H        1.0811183526   -5.5629418162   -5.1116542486
H        1.9115906432   -3.8018664393   -3.2806968732
H       -1.4868963274   -5.9036649631   -5.0291822597
H       -0.8449478065    0.8650138553    0.6328921389
H        0.8789949303    0.6875406902    1.0153811184
H        0.3775342940    1.2851161113   -0.5865729770
H       -0.0081330728   -0.9583540287   -3.7686515741
H        0.2839818826    0.4945701295   -2.8137016334
H        0.2252850964   -3.9300759979    0.0486676335
H       -3.1623700688    1.1600269280   -2.5277841707
25   

C        0.4718649832   -5.1368572172   -4.3434769143
C        0.9396759610   -4.2331680699   -3.3013853419
C       -0.8876934321   -5.0630650701   -4.5186664924
C       -0.0544371971   -1.1988347897   -1.6521269020
C        0.0518342948   -2.5536687109   -1.6459483201
C       -0.0855882678   -3.5146572122   -2.7404103529
C        0.1597882526   -0.7970389600   -0.2754155118
C       -1.7945828458    0.1414251225   -2.8488576363
C        0.1835653850    0.5996081743    0.2698342730
C       -0.3363534259   -0.3072747201   -2.8392478047
N        0.3635093433   -1.8563905532    0.4673712862
N        0.2913629935   -2.9412066502   -0.3573677540
O       -2.6148805678   -0.5515332150   -3.4277833651
O       -2.0980555858    1.3215959510   -2.2538532578
S       -1.6426438955   -3.8998472989   -3.4323913240
H        1.1219445000   -5.7910898047   -4.9144500669
H        1.9767007374   -4.1354388907   -3.0003666670
H       -1.4452475215   -5.6469667371   -5.2419204563
H       -0.7835764522    0.8301005295    0.7243755943
H        0.9574104666    0.6867053351    1.0376555228
H        0.3818878087    1.3237611210   -0.5236951588
H       -0.1167433936   -0.8372657403   -3.7703185258
H        0.3093524154    0.5738962796   -2.8045400671
H        0.3789785279   -3.9119367740   -0.0638972240
H       -3.0574714484    1.4376841144   -2.3515784714
25   

C        0.4902945050   -5.2929185252   -4.2593333148
C        0.9233383347   -4.4021603877   -3.1915047973
C       -0.8102394449   -5.0597711572   -4.6304402789
C       -0.1340800751   -1.2036516822   -1.7347017490
C        0.0481074229   -2.5516228068   -1.7314263656
C       -0.0657976036   -3.5310813951   -2.8070151948
C        0.1143580325   -0.7864718924   -0.3679898485
C       -1.9641707205    0.0996793143   -2.8450220206
C        0.0904645614    0.6116526636    0.1736819422
C       -0.4988237099   -0.3221110444   -2.9074998604
N        0.4073401238   -1.8299957747    0.3670008555
N        0.3619426056   -2.9196159270   -0.4526763577
O       -2.8022886419   -0.6216362999   -3.3600292961
O       -2.2569170033    1.2885029802   -2.2622886509
S       -1.5489598600   -3.7569852149   -3.7037401660
H        1.1216354624   -6.0521623214   -4.7083663055
H        1.9135882044   -4.4216686380   -2.7505549309
H       -1.3345404039   -5.6069945901   -5.4054080861
H       -0.8758211884    0.8029642706    0.6476928817
H        0.8760858480    0.7341613631    0.9245605745
H        0.2418142289    1.3407470622   -0.6256900356
H       -0.3149669637   -0.8483407794   -3.8482127854
H        0.1301746079    0.5718170264   -2.9077800802
H        0.5086525780   -3.8830720504   -0.1593358193
H       -3.2222254931    1.3853808657   -2.3109516865
25   

C        0.4407205221   -5.3697257044   -4.1723296554
C        0.8404782629   -4.5207560792   -3.0586489167
C       -0.7515749048   -4.9722240293   -4.7220461377
C       -0.1600647550   -1.1851385238   -1.7372274235
C        0.0471562907   -2.5318163785   -1.7475490235
C       -0.0642518194   -3.5151654338   -2.8149111295
C        0.1366828005   -0.7680278959   -0.3795656470
C       -2.0391856165    0.1072559378   -2.7827692356
C        0.1102092548    0.6266892050    0.1715446853
C       -0.5686036711   -0.2885023176   -2.8850312404
N        0.4832772187   -1.8068252373    0.3375508726
N        0.4271625913   -2.8934135373   -0.4843544963
O       -2.8762271127   -0.6124371344   -3.3016256586
O       -2.3386300093    1.2751710022   -2.1624791016
S       -1.4246197594   -3.5612485323   -3.9121438484
H        1.0182167922   -6.2169879861   -4.5263610151
H        1.7538935272   -4.6631501718   -2.4926696167
H       -1.2344864157   -5.4614202051   -5.5601381417
H       -0.8423018968    0.8006791981    0.6788689316
H        0.9188385850    0.7568122432    0.8963001854
H        0.2239395231    1.3633752510   -0.6269960646
H       -0.3921416598   -0.7881802187   -3.8410012938
H        0.0433579565    0.6170954206   -2.8811327622
H        0.6044998462   -3.8537328588   -0.1985941187
H       -3.3060487793    1.3581217739   -2.1904928013
25   

C        0.3626681588   -5.5144428696   -4.0387331721
C        0.7248916991   -4.6947568672   -2.8910347487
C       -0.6830033842   -4.9788819239   -4.7452186886
C       -0.1628825814   -1.2264802736   -1.7116842211
C        0.0586208840   -2.5741769656   -1.7235764376
C       -0.0622613307   -3.5717850708   -2.7735952807
C        0.1930876859   -0.7960091203   -0.3713808266
C       -2.1063600878   -0.0103396263   -2.7360403852
C        0.1747350601    0.5993840901    0.1798226092
C       -0.6158156634   -0.3222116626   -2.8384876407
N        0.5913159112   -1.8236150600    0.3333848438
N        0.5128497887   -2.9150700743   -0.4784448804
O       -2.8864237618   -0.6482059414   -3.4234571770
O       -2.4845686396    1.0098582516   -1.9267192396
S       -1.2585428709   -3.4707282767   -4.0443674109
H        0.8627072629   -6.4394013232   -4.3054212945
H        1.5368091790   -4.9429767585   -2.2177904979
H       -1.1144283746   -5.4224532497   -5.6351825855
H       -0.7588252353    0.7640669487    0.7241177800
H        1.0098297075    0.7381276903    0.8722756356
H        0.2496290902    1.3381316052   -0.6210451484
H       -0.3986989952   -0.7768098684   -3.8079064869
H       -0.0593477088    0.6174794349   -2.8044221082
H        0.7226086592   -3.8685319811   -0.1930237502
H       -3.4528401964    1.0593475404   -1.9842684762
25   

C        0.2580421272   -5.5533764634   -3.9493587701
C        0.5669522161   -4.7577798350   -2.7696856945
C       -0.5761874098   -4.8929039654   -4.8125358754
C       -0.1603052194   -1.1632529495   -1.7374708307
C        0.0805820470   -2.5119024531   -1.7486288515
C       -0.0484109165   -3.5247645405   -2.7823181867
C        0.2622389904   -0.7116404609   -0.4228162959
C       -2.1742195162   -0.0872755583   -2.8060207643
C        0.2274909218    0.6825860054    0.1313771230
C       -0.6562105038   -0.2508039724   -2.8416283686
N        0.6946470803   -1.7264218191    0.2777253408
N        0.5803054097   -2.8282187828   -0.5133892106
O       -2.8418149296   -0.6355330048   -3.6671958363
O       -2.7021206898    0.7199919235   -1.8528211502
S       -1.0115589043   -3.2936300283   -4.2235161091
H        0.6451154915   -6.5511056183   -4.1266193516
H        1.2248399025   -5.1079806547   -1.9838824831
H       -0.9333566296   -5.2970498556   -5.7527535850
H       -0.4802624997    1.3072441719   -0.4173678298
H       -0.0650058629    0.6563565400    1.1847759739
H        1.2230726124    1.1284057707    0.0602192401
H       -0.3431017388   -0.6234975495   -3.8193880714
H       -0.2021295038    0.7370860405   -2.7312286706
H        0.8139919148   -3.7738069002   -0.2221477512
H       -3.6645577595    0.7027202634   -1.9804688673
25   

C       -0.0643888545   -5.5859473143   -3.8260189117
C        0.2708018319   -4.7887713079   -2.6545091202
C       -0.6403710570   -4.8327503864   -4.8149636449
C       -0.1090378881   -1.0690553036   -1.8211020913
C        0.1480848970   -2.4163602019   -1.8128005747
C       -0.0644025025   -3.4598964839   -2.8006841530
C        0.3580247541   -0.5802710717   -0.5366503413
C       -2.2255310072   -0.2020033142   -2.9030956044
C        0.2747732996    0.8206705390   -0.0056710848
C       -0.6982335900   -0.1857634786   -2.9047284359
N        0.8475514321   -1.5685250747    0.1631573941
N        0.7210570988   -2.6890629221   -0.5991937953
O       -2.8012081382   -0.3412981593   -3.9698812024
O       -2.8697129242   -0.0367512689   -1.7203619557
S       -0.7934678379   -3.1411661547   -4.3581899463
H        0.1201683998   -6.6518054797   -3.9075032813
H        0.7351630938   -5.2141157714   -1.7737228541
H       -0.9684967592   -5.2218679077   -5.7720083215
H       -0.5737968885    1.3507319940   -0.4451549956
H        0.1541804060    0.8011062320    1.0812312605
H        1.1957624079    1.3587971048   -0.2447966065
H       -0.3204215063   -0.4826141539   -3.8853250745
H       -0.3733714800    0.8463739247   -2.7554007613
H        1.0138396120   -3.6172002281   -0.3064913590
H       -3.8195892309   -0.0926619141   -1.9120172496
