18   

C       -0.8336739444   -1.4334048861   -1.2121064144
C       -0.1697352743   -0.3462281972   -0.7128072135
C       -0.3635225376   -2.8679003690   -1.3806014513
C        1.0133546715    1.2707523519    0.7973319635
C       -1.4273327621    0.7585431598    1.1377623614
C       -0.0714820229    0.1949722070    0.7084843031
H       -1.5330392837   -1.1779038501   -2.0011699761
H       -0.0823835227    0.4584424290   -1.4354355172
H        0.7020050324   -2.8869947618   -1.6277060360
H       -0.9202850259   -3.3608601484   -2.1831011259
H       -0.5190378315   -3.4230198626   -0.4510315715
H        0.7826452900    2.1117369555    0.1357765564
H        1.9817760080    0.8510005589    0.5071110725
H        1.0938125833    1.6439185539    1.8231989839
H       -1.7284648682    1.5776088148    0.4765938274
H       -1.3748122555    1.1366047713    2.1634978832
H       -2.1923111220   -0.0231226741    1.0961423180
H        0.1981866622   -0.6280420850    1.3788735047
18   

C       -0.8398098099   -1.3706223320   -1.3092607874
C       -0.2381922569   -0.2587590809   -0.8086617955
C       -0.3285775671   -2.7972180965   -1.2894481677
C        1.0263792758    1.2041478596    0.7794025291
C       -1.4256453014    0.7604369652    1.1300251463
C       -0.0988465488    0.1768490060    0.6409115911
H       -1.4056331141   -1.1779245091   -2.2146609890
H       -0.2215936912    0.5835028595   -1.4925867443
H       -0.2844505637   -3.1982488002   -2.3064045929
H       -0.9952589383   -3.4242793573   -0.6904365028
H        0.6744504619   -2.8343042764   -0.8536703664
H        0.8160323206    2.0944105127    0.1782919348
H        1.9735898345    0.7699249521    0.4440461278
H        1.1374432474    1.5057196211    1.8257662888
H       -1.7043885466    1.6340779456    0.5319411392
H       -1.3442960177    1.0640470678    2.1783748506
H       -2.2206042324    0.0126259230    1.0473776301
H        0.1484332538   -0.6987958013    1.2506042275
18   

C       -0.8242707866   -1.3267154368   -1.4061564564
C       -0.3063203137   -0.1906083648   -0.8872719649
C       -0.3033438095   -2.7334403086   -1.2091878921
C        1.0316725963    1.1368478414    0.7500062119
C       -1.4270057360    0.7560525802    1.1221123376
C       -0.1291516213    0.1556099950    0.5789616335
H       -1.3254712191   -1.1956374130   -2.3593173109
H       -0.3562435746    0.6779590750   -1.5356835802
H       -0.1642552167   -3.2235573371   -2.1773684718
H       -1.0155182187   -3.3156253888   -0.6172123248
H        0.6571364651   -2.7143557778   -0.6851742579
H        0.8401286474    2.0642000335    0.2009011220
H        1.9578607728    0.6911450189    0.3735530389
H        1.1711022329    1.3781178055    1.8085501244
H       -1.6846480152    1.6707590765    0.5784789786
H       -1.3191960167    0.9972825702    2.1842086146
H       -2.2483916415    0.0410516490    1.0116947644
H        0.0971902272   -0.7588720818    1.1376280358
18   

C       -0.7716014029   -1.2839270259   -1.4816174882
C       -0.3574211586   -0.1310372482   -0.9214606145
C       -0.2866689025   -2.6744479848   -1.1472949851
C        1.0364058447    1.0994534988    0.7371062175
C       -1.4219576513    0.7558967849    1.1400488018
C       -0.1473685130    0.1490367118    0.5511803067
H       -1.1956359796   -1.1881999229   -2.4755244133
H       -0.4513807126    0.7538541835   -1.5422727685
H       -0.0755503547   -3.2299944701   -2.0658285328
H       -1.0524201635   -3.2102218476   -0.5787828675
H        0.6291074728   -2.6286706000   -0.5501481684
H        0.8536518991    2.0509035247    0.2276053470
H        1.9459923806    0.6504599921    0.3257149606
H        1.2005643516    1.2968325780    1.8011794938
H       -1.6683562000    1.6969684148    0.6378105746
H       -1.2910996863    0.9519389925    2.2088581911
H       -2.2606618666    0.0635765500    1.0158605180
H        0.0683871032   -0.7891796735    1.0730731397
18   

C       -0.6957058745   -1.2545540246   -1.5481569768
C       -0.3985501179   -0.0926264753   -0.9421290880
C       -0.2818812106   -2.6388601118   -1.1160452258
C        1.0393345348    1.0744030535    0.7186285403
C       -1.4159992151    0.7578796388    1.1547257238
C       -0.1608490008    0.1450796108    0.5314880430
H       -1.0377334514   -1.1753413710   -2.5745699743
H       -0.5242573566    0.8014198499   -1.5438856160
H       -0.0300240268   -3.2448624745   -1.9913716378
H       -1.1015120127   -3.1225748753   -0.5766932885
H        0.5950929061   -2.5945172359   -0.4634613368
H        0.8612786600    2.0398652774    0.2343816552
H        1.9352564858    0.6227830177    0.2809681957
H        1.2245608020    1.2447569567    1.7839029481
H       -1.6555460150    1.7144013587    0.6791024633
H       -1.2652286620    0.9261059520    2.2256753039
H       -2.2672768033    0.0815476609    1.0278441143
H        0.0488613676   -0.8058934527    1.0315342588
18   

C       -0.5900324873   -1.2463418167   -1.5965821440
C       -0.4226517702   -0.0827362683   -0.9494858760
C       -0.2687673155   -2.6311484366   -1.0975558449
C        1.0392713900    1.0535889177    0.7067001828
C       -1.4140104550    0.7556634482    1.1629935555
C       -0.1706695892    0.1362481441    0.5230093098
H       -0.8427111333   -1.1729486638   -2.6489766797
H       -0.5702576048    0.8144673262   -1.5414799905
H        0.0078605494   -3.2760690348   -1.9368256701
H       -1.1417279973   -3.0602595820   -0.5970557782
H        0.5686740330   -2.6059236864   -0.3943028057
H        0.8645763482    2.0249267497    0.2330278089
H        1.9269070013    0.5986411776    0.2557917345
H        1.2365901556    1.2126494223    1.7715344588
H       -1.6488831045    1.7187008079    0.6983567460
H       -1.2518248691    0.9126276161    2.2340115042
H       -2.2727337188    0.0884259994    1.0380839994
H        0.0350458446   -0.8193977530    1.0150365057
18   

C       -0.4899752133   -1.2410624136   -1.6235686469
C       -0.4686914656   -0.0836955233   -0.9457924111
C       -0.2452080909   -2.6283210756   -1.0908728950
C        1.0446062450    1.0161191485    0.6848770690
C       -1.4109633559    0.7988809233    1.1721065916
C       -0.1955519680    0.1359829100    0.5220895366
H       -0.6654653285   -1.1678307026   -2.6915574977
H       -0.6605472956    0.8102960561   -1.5299019711
H        0.0516885836   -3.2948434190   -1.9059537477
H       -1.1577713117   -3.0194360623   -0.6315745943
H        0.5550515611   -2.6215735392   -0.3453059419
H        0.8942436235    1.9888487821    0.2056333290
H        1.9122927029    0.5307781454    0.2269280673
H        1.2592900484    1.1770653032    1.7460411510
H       -1.6207760120    1.7662590908    0.7046095763
H       -1.2314474602    0.9564304234    2.2402954058
H       -2.2916771769    0.1583056330    1.0613525744
H       -0.0146447116   -0.8220233235    1.0190560396
18   

C       -0.3891869077   -1.2267656651   -1.6375780312
C       -0.5150830585   -0.0925639795   -0.9315600263
C       -0.2229356395   -2.6270428803   -1.1070041521
C        1.0300742688    1.0013498922    0.6697268590
C       -1.4184665289    0.8062753434    1.2009064698
C       -0.2200658862    0.1310665964    0.5322191222
H       -0.5784911002   -1.1471945890   -2.7027539217
H       -0.7805274955    0.7926830149   -1.4999752325
H        0.8398608544   -2.8613886904   -0.9963570551
H       -0.6711561060   -3.3450439316   -1.8001074708
H       -0.7147665306   -2.7353228061   -0.1359803385
H        0.8797097935    1.9727852200    0.1878581673
H        1.8857988207    0.5064811260    0.1995627586
H        1.2641576344    1.1657735533    1.7262263447
H       -1.6282557531    1.7739838914    0.7340985358
H       -1.2188978373    0.9657878611    2.2652537473
H       -2.3062220560    0.1727072391    1.1077700548
H       -0.0342698004   -0.8264778010    1.0284622509
18   

C       -0.2734334290   -1.2126172925   -1.6336765573
C       -0.5320326296   -0.1064674966   -0.9158979747
C       -0.2165930404   -2.6327442386   -1.1294115171
C        1.0283616018    1.0036182115    0.6615185320
C       -1.4178687544    0.8271899811    1.2127550583
C       -0.2273031490    0.1382352143    0.5441752150
H       -0.3731185603   -1.1092149756   -2.7089216386
H       -0.8203630636    0.7711215870   -1.4850508733
H        0.8233658780   -2.9293756027   -0.9645769917
H       -0.6637297060   -3.3091858604   -1.8638247311
H       -0.7672274938   -2.7318395024   -0.1892533081
H        0.8792837637    1.9691542683    0.1675044886
H        1.8783503463    0.4983346924    0.1920452945
H        1.2705478952    1.1812231224    1.7140237103
H       -1.6275225062    1.7893905359    0.7347052244
H       -1.2093969264    1.0000668671    2.2733171106
H       -2.3086756544    0.1958296221    1.1350985167
H       -0.0429660698   -0.8152021713    1.0494983015
18   

C       -0.1737253589   -1.2243199836   -1.6025073864
C       -0.5539136276   -0.1512097665   -0.8825300680
C       -0.2174370671   -2.6679401607   -1.1614523643
C        1.0284957277    1.0022476593    0.6456148448
C       -1.4129356736    0.8530306432    1.2296456721
C       -0.2326901867    0.1402981050    0.5676674776
H       -0.1900146065   -1.0877647095   -2.6785683953
H       -0.8764803491    0.7105868779   -1.4574441753
H        0.7949891020   -3.0248129566   -0.9510486640
H       -0.6539934722   -3.2887719904   -1.9494201082
H       -0.8246602890   -2.7752027180   -0.2575159893
H        0.8783601096    1.9529121276    0.1238221107
H        1.8712191943    0.4789836123    0.1828333641
H        1.2825265753    1.2108607044    1.6895778672
H       -1.6253465706    1.8014101967    0.7259541685
H       -1.1910641315    1.0563974712    2.2820588059
H       -2.3065183120    0.2226463715    1.1815692907
H       -0.0478791058   -0.8009395347    1.0959563940
18   

C       -0.0890115614   -1.2532810312   -1.5547133740
C       -0.5755706038   -0.2180918761   -0.8336746799
C       -0.2148024113   -2.7250021474   -1.2272229640
C        1.0261499766    1.0026690602    0.6271339997
C       -1.4108736103    0.8911143066    1.2411687678
C       -0.2397579753    0.1443339528    0.6005408683
H       -0.0267275490   -1.0657078243   -2.6214072993
H       -0.9453838711    0.6181962663   -1.4177976483
H        0.7671002745   -3.1367367231   -0.9764069283
H       -0.6178420589   -3.2698011903   -2.0861100454
H       -0.8853444358   -2.8698334847   -0.3746538215
H        0.8753524979    1.9280246912    0.0618183139
H        1.8628479012    0.4543768618    0.1828306974
H        1.2897787296    1.2597521616    1.6577995644
H       -1.6259108717    1.8160085716    0.6966348884
H       -1.1771834179    1.1420468061    2.2806825044
H       -2.3066917400    0.2621348948    1.2318244484
H       -0.0549593108   -0.7742282667    1.1677349732
18   

C       -0.0294133087   -1.2896162290   -1.4729457694
C       -0.5939350248   -0.2949262756   -0.7376291920
C       -0.2105651799   -2.7858309377   -1.3134086143
C        1.0271150150    1.0070159839    0.6351255375
C       -1.4077063346    0.9592698581    1.2688489583
C       -0.2474527274    0.1617628789    0.6701420109
H        0.0977720174   -1.0273908557   -2.5179815266
H       -1.0324304319    0.5014548171   -1.3300251385
H        0.7415242154   -3.2500131369   -1.0403783590
H       -0.5635650800   -3.2269716107   -2.2502966366
H       -0.9426257095   -2.9973122796   -0.5281023512
H        0.8823676517    1.8940267072    0.0098967660
H        1.8568659528    0.4225629719    0.2253210387
H        1.2974361094    1.3298107153    1.6453551987
H       -1.6185934634    1.8493734621    0.6676920956
H       -1.1646039003    1.2743010051    2.2885618758
H       -2.3089589892    0.3391166453    1.3059291015
H       -0.0694432137   -0.7207411797    1.2939412091
18   

C        0.0143144971   -1.3486016048   -1.3833532669
C       -0.6022865280   -0.3901021141   -0.6262870756
C       -0.2004080878   -2.8519935571   -1.4136350292
C        1.0319693867    1.0057803973    0.6415452749
C       -1.4018165792    1.0277799644    1.2829564019
C       -0.2497384599    0.1769162750    0.7436842311
H        0.2947364384   -0.9947159525   -2.3698330901
H       -1.1123501270    0.3543698334   -1.2287100617
H        0.0893291845   -3.2599736783   -2.3865708307
H       -1.2542104811   -3.0842391925   -1.2338107950
H        0.4028044992   -3.3306576686   -0.6368093966
H        0.8937132716    1.8411088217   -0.0525761758
H        1.8568451536    0.3839743377    0.2797956512
H        1.3054115530    1.4062352810    1.6227117311
H       -1.6080455856    1.8711109650    0.6163231493
H       -1.1526283797    1.4180913963    2.2747688145
H       -2.3076988917    0.4195079208    1.3703748026
H       -0.0787634113   -0.6559053707    1.4340979080
