18   

C       -0.8336739444   -1.4334048861   -1.2121064144
C       -0.1697352743   -0.3462281972   -0.7128072135
C       -0.3635225376   -2.8679003690   -1.3806014513
C        1.0099964447    1.2742035257    0.7969275219
C       -1.4286615903    0.7542907666    1.1389837519
C       -0.0714820229    0.1949722070    0.7084843031
H       -1.4514685452   -1.1684396166   -2.0637491455
H       -0.0551233744    0.4501258584   -1.4408983892
H       -0.4133043434   -3.1636589941   -2.4327679659
H       -0.9968064493   -3.5395809859   -0.7939392961
H        0.6699441920   -2.9693060591   -1.0359904424
H        0.7760712507    2.1147437562    0.1359400268
H        1.9795276393    0.8576379044    0.5058081127
H        1.0900994237    1.6471523464    1.8229022213
H       -1.7327747623    1.5724703425    0.4780750604
H       -1.3764573497    1.1324574451    2.1646950901
H       -2.1913202333   -0.0296618970    1.0978787413
H        0.2014641977   -0.6273476693    1.3783969777
18   

C       -0.8398098099   -1.3706223320   -1.3092607874
C       -0.2381922569   -0.2587590809   -0.8086617955
C       -0.3285775671   -2.7972180965   -1.2894481677
C        1.0277182315    1.2026430987    0.7795799390
C       -1.4250350993    0.7622603945    1.1295398171
C       -0.0988465488    0.1768490060    0.6409115911
H       -1.4023570276   -1.1781840233   -2.2167625702
H       -0.2282047910    0.5852770438   -1.4905390316
H       -0.2832771848   -3.1978888324   -2.3064988085
H       -0.9959211845   -3.4245204050   -0.6914254476
H        0.6739563335   -2.8344547225   -0.8525443130
H        0.8187462002    2.0930715625    0.1782323104
H        1.9744530112    0.7671045954    0.4445929871
H        1.1388399542    1.5042725466    1.8259208556
H       -1.7024585672    1.6362297530    0.5313262632
H       -1.3436292636    1.0658145009    2.1779014411
H       -2.2209412546    0.0154758553    1.0466913969
H        0.1469783107   -0.6990544913    1.2508222104
18   

C       -0.8242707866   -1.3267154368   -1.4061564564
C       -0.3063203137   -0.1906083648   -0.8872719649
C       -0.3033438095   -2.7334403086   -1.2091878921
C        1.0328500551    1.1354277701    0.7500781288
C       -1.4263911294    0.7577417638    1.1217400849
C       -0.1291516213    0.1556099950    0.5789616335
H       -1.3230756332   -1.1957682362   -2.3605948195
H       -0.3611249427    0.6788411117   -1.5341136831
H       -0.1634686355   -3.2232990668   -2.1773881194
H       -1.0159014212   -3.3158576214   -0.6179013488
H        0.6567395793   -2.7143988643   -0.6844441884
H        0.8425594263    2.0628980741    0.2007331133
H        1.9585744606    0.6885218662    0.3739161430
H        1.1723252570    1.3767553808    1.8086028390
H       -1.6828053045    1.6727101304    0.5779710549
H       -1.3185333123    0.9989302949    2.1838410027
H       -2.2486212245    0.0437250492    1.0112134694
H        0.0958477988   -0.7590709983    1.1378455447
18   

C       -0.7716014029   -1.2839270259   -1.4816174882
C       -0.3574211586   -0.1310372482   -0.9214606145
C       -0.2866689025   -2.6744479848   -1.1472949851
C        1.0373609474    1.0982519063    0.7371036327
C       -1.4214166003    0.7573103900    1.1397822476
C       -0.1473685130    0.1490367118    0.5511803067
H       -1.1940086927   -1.1882292701   -2.4762216642
H       -0.4549407904    0.7542319416   -1.5411887865
H       -0.0750062647   -3.2298146006   -2.0658133610
H       -1.0526480676   -3.2104149563   -0.5792715685
H        0.6287939930   -2.6286686759   -0.5496669833
H        0.8556448965    2.0497869805    0.2273868936
H        1.9465470016    0.6482581283    0.3259243221
H        1.2015569916    1.2956786926    1.8011622220
H       -1.6667866035    1.6985784636    0.6374124311
H       -1.2905175750    0.9533265682    2.2085914791
H       -2.2608098931    0.0658295433    1.0155566133
H        0.0672695282   -0.7893265289    1.0732703805
18   

C       -0.6957058745   -1.2545540246   -1.5481569768
C       -0.3985501179   -0.0926264753   -0.9421290880
C       -0.2818812106   -2.6388601118   -1.1160452258
C        1.0400280598    1.0735048596    0.7185946243
C       -1.4155838270    0.7589261563    1.1545459737
C       -0.1608490008    0.1450796108    0.5314880430
H       -1.0368480697   -1.1753243637   -2.5748639036
H       -0.5266464222    0.8015208896   -1.5432332859
H       -0.0296693990   -3.2447524672   -1.9913463170
H       -1.1016427424   -3.1227124552   -0.5770151631
H        0.5948711463   -2.5944965199   -0.4631643679
H        0.8627363745    2.0390235691    0.2341772058
H        1.9356463982    0.6211465493    0.2810783529
H        1.2252826896    1.2438929110    1.7838586041
H       -1.6543680628    1.7155818559    0.6788117173
H       -1.2647817448    0.9271375466    2.2254935292
H       -2.2673631170    0.0832239964    1.0276643994
H        0.0480358059   -0.8059931489    1.0316904814
18   

C       -0.5900324873   -1.2463418167   -1.5965821440
C       -0.4226517702   -0.0827362683   -0.9494858760
C       -0.2687673155   -2.6311484366   -1.0975558449
C        1.0396531267    1.0530854819    0.7066729680
C       -1.4137737163    0.7562441298    1.1628981335
C       -0.1706695892    0.1362481441    0.5230093098
H       -0.8425616541   -1.1729406598   -2.6490120836
H       -0.5715249044    0.8144498041   -1.5411895885
H        0.0079663547   -3.2760403473   -1.9368129700
H       -1.1417619403   -3.0603019486   -0.5971512523
H        0.5686039116   -2.6059092716   -0.3942193716
H        0.8653818837    2.0244524340    0.2329026115
H        1.9271168548    0.5977280164    0.2558414284
H        1.2369886161    1.2121639150    1.7715014400
H       -1.6482220084    1.7193525591    0.6981960211
H       -1.2515693300    0.9132001287    2.2339144666
H       -2.2727732830    0.0893599425    1.0379956911
H        0.0345874915   -0.8194517258    1.0151237847
18   

C       -0.4899752133   -1.2410624136   -1.6235686469
C       -0.4686914656   -0.0836955233   -0.9457924111
C       -0.2452080909   -2.6283210756   -1.0908728950
C        1.0446049762    1.0161206606    0.6848772014
C       -1.4109637710    0.7988749871    1.1721118661
C       -0.1955519680    0.1359829100    0.5220895366
H       -0.6660552361   -1.1678931680   -2.6914646650
H       -0.6605948929    0.8102917692   -1.5298928425
H        0.0513920309   -3.2949173152   -1.9060009183
H       -1.1576823480   -3.0193159573   -0.6312959963
H        0.5552585820   -2.6216056567   -0.3455271137
H        0.8942395613    1.9888513023    0.2056364069
H        1.9122913016    0.5307825153    0.2269248846
H        1.2592906991    1.1770640551    1.7460413033
H       -1.6207797368    1.7662545919    0.7046193065
H       -1.2314459245    0.9564206113    2.2403009168
H       -2.2916761741    0.1582979186    1.0613570584
H       -0.0146401851   -0.8220280270    1.0190473105
18   

C       -0.3891869077   -1.2267656651   -1.6375780312
C       -0.5150830585   -0.0925639795   -0.9315600263
C       -0.2229356395   -2.6270428803   -1.1070041521
C        1.0297129042    1.0018699319    0.6697518932
C       -1.4187252461    0.8057079538    1.2010083363
C       -0.2200658862    0.1310665964    0.5322191222
H       -0.5786412913   -1.1472167263   -2.7027289546
H       -0.7792678173    0.7929196630   -1.5001939216
H        0.8398630294   -2.8614274625   -0.9964598281
H       -0.6712523596   -3.3450355494   -1.8000540650
H       -0.7146739238   -2.7352920094   -0.1359296730
H        0.8789267605    1.9732912305    0.1879883340
H        1.8856220247    0.5074004486    0.1995020335
H        1.2637802221    1.1662819023    1.7262567899
H       -1.6289401665    1.7733601805    0.7342735439
H       -1.2191773082    0.9652346329    2.2653573557
H       -2.3062177487    0.1717741959    1.1078612704
H       -0.0338122567   -0.8264396499    1.0283650271
18   

C       -0.2734334290   -1.2126172925   -1.6336765573
C       -0.5320326296   -0.1064674966   -0.9158979747
C       -0.2165930404   -2.6327442386   -1.1294115171
C        1.0277166765    1.0045585770    0.6615520900
C       -1.4183365983    0.8261745306    1.2129553277
C       -0.2273031490    0.1382352143    0.5441752150
H       -0.3740344408   -1.1093791516   -2.7088527164
H       -0.8179737117    0.7717032321   -1.4853611425
H        0.8233869281   -2.9294979493   -0.9649293897
H       -0.6640614340   -3.3091448798   -1.8636611722
H       -0.7669172545   -2.7317652475   -0.1890635259
H        0.8778812339    1.9700757559    0.1677332605
H        1.8780382742    0.4999891409    0.1919105582
H        1.2698766065    1.1821427313    1.7140669095
H       -1.6287573678    1.7882775765    0.7350434265
H       -1.2099009370    0.9990790621    2.2735199462
H       -2.3086723595    0.1941534918    1.1352869586
H       -0.0421407800   -0.8151358470    1.0493219843
18   

C       -0.1737253589   -1.2243199836   -1.6025073864
C       -0.5539136276   -0.1512097665   -0.8825300680
C       -0.2174370671   -2.6679401607   -1.1614523643
C        1.0276338049    1.0035204519    0.6456306784
C       -1.4135696922    0.8516689460    1.2299634443
C       -0.2326901867    0.1402981050    0.5676674776
H       -0.1917465847   -1.0881319561   -2.6785889371
H       -0.8729204444    0.7116807668   -1.4577945334
H        0.7950446265   -3.0249776815   -0.9515945304
H       -0.6545137854   -3.2886991182   -1.9491905316
H       -0.8241928489   -2.7751221747   -0.2571920410
H        0.8764805884    1.9541756215    0.1241185459
H        1.8708049356    0.4812103148    0.1825826892
H        1.2816324359    1.2121000690    1.6896083170
H       -1.6270175942    1.7999248848    0.7264740720
H       -1.1917468822    1.0550747618    2.2823792715
H       -2.3065175598    0.2203883353    1.1818905993
H       -0.0467653911   -0.8008619999    1.0957041634
18   

C       -0.0890115614   -1.2532810312   -1.5547133740
C       -0.5755706038   -0.2180918761   -0.8336746799
C       -0.2148024113   -2.7250021474   -1.2272229640
C        1.0251282411    1.0041940650    0.6270909581
C       -1.4116381465    0.8894985681    1.2416322690
C       -0.2397579753    0.1443339528    0.6005408683
H       -0.0293567525   -1.0663441338   -2.6216725735
H       -0.9405404101    0.6200564729   -1.4181868983
H        0.7672267932   -3.1369178354   -0.9771986454
H       -0.6186097836   -3.2696992044   -2.0858166221
H       -0.8846976311   -2.8697714930   -0.3741339443
H        0.8731186454    1.9295661957    0.0621311351
H        1.8623587610    0.4570247903    0.1824009860
H        1.2887232901    1.2612274791    1.6577776467
H       -1.6279227433    1.8142594601    0.6973622060
H       -1.1780074932    1.1404781342    2.2811479655
H       -2.3066950501    0.2594390014    1.2323326671
H       -0.0536245729   -0.7741579609    1.1674132047
18   

C       -0.0294133087   -1.2896162290   -1.4729457694
C       -0.5939350248   -0.2949262756   -0.7376291920
C       -0.2105651799   -2.7858309377   -1.3134086143
C        1.0260287498    1.0086682962    0.6349817693
C       -1.4085597641    0.9575450814    1.2694681092
C       -0.2474527274    0.1617628789    0.6701420109
H        0.0940559440   -1.0283538360   -2.5186745421
H       -1.0260118893    0.5045395253   -1.3306024719
H        0.7417895112   -3.2501610718   -1.0415539964
H       -0.5647301736   -3.2268468303   -2.2499198580
H       -0.9417187901   -2.9973216365   -0.5272585976
H        0.8799767633    1.8957434477    0.0101520584
H        1.8563617950    0.4253952539    0.2246682186
H        1.2963140321    1.3313977337    1.6452419709
H       -1.6208113989    1.8475389935    0.6686260233
H       -1.1655293493    1.2726208368    2.2891843249
H       -2.3089892082    0.3362072844    1.3066561164
H       -0.0679959169   -0.7207079721    1.2935746147
18   

C        0.0143144971   -1.3486016048   -1.3833532669
C       -0.6022865280   -0.3901021141   -0.6262870756
C       -0.2004080878   -2.8519935571   -1.4136350292
C        1.0344523562    1.0019117670    0.6419994772
C       -1.3995983845    1.0317915919    1.2814280932
C       -0.2497384599    0.1769162750    0.7436842311
H        0.1952305203   -1.0034707046   -2.3959371688
H       -1.1374820615    0.3407840579   -1.2236174480
H        0.7253148723   -3.3668068174   -1.1409077731
H       -0.5022177742   -3.1732779628   -2.4149806290
H       -0.9826093441   -3.1359128463   -0.7032517701
H        0.8991587542    1.8369518558   -0.0530592464
H        1.8578676655    0.3774390175    0.2815267067
H        1.3081508661    1.4025292779    1.6230263909
H       -1.6026191764    1.8753243203    0.6140687918
H       -1.1500066173    1.4219619032    2.2731954403
H       -2.3074379437    0.4263969985    1.3685652702
H       -0.0820401767   -0.6558701225    1.4349415724
