36

C     -4.83796    4.07523    2.21022
C     -4.37067    3.95268    3.52148
C     -5.25801    2.94100    1.51441
C     -4.33773    2.69462    4.12565
C     -5.23066    1.65983    2.08854
C     -4.76743    1.57226    3.41413
C     -4.72267   -0.73859    1.20001
C     -0.65946    0.31002    1.44604
C     -1.75366    1.36052    1.20205
C     -1.25595   -0.99105    2.00411
C     -7.13161    0.01876    1.55664
C     -6.71303    0.55811    0.21985
C     -2.87982    0.76526    0.35183
C     -2.40025   -1.50941    1.12328
C     -5.68660    0.43915    1.34329
N     -3.40368   -0.45574    0.96133
O     -5.12725   -1.89671    1.32596
Cl    -4.72298    0.02044    4.23431
H     -4.86978    5.04844    1.72805
H     -4.03601    4.82574    4.07488
H     -5.59969    3.04486    0.48871
H     -3.98467    2.57683    5.14533
H      0.10241    0.70374    2.12810
H     -0.15093    0.09461    0.49575
H     -2.17245    1.70047    2.15548
H     -1.33900    2.23925    0.69442
H     -0.48239   -1.76368    2.08435
H     -1.64960   -0.81568    3.01244
H     -7.72293    0.66474    2.19760
H     -7.29985   -1.04708    1.65626
H     -6.61125   -0.14718   -0.59912
H     -7.05340    1.54669   -0.07104
H     -3.68109    1.48032    0.19381
H     -2.48530    0.50175   -0.64237
H     -2.01769   -1.80648    0.13503
H     -2.89022   -2.37672    1.56347
