20

C      4.70150   -5.11396   -0.99982
C      1.67753   -1.23487   -0.06270
C      0.71120   -0.45827    0.59033
C      1.83238   -0.84423    2.70715
C      2.72444   -1.82359    0.65338
C      2.77667   -1.60821    2.04153
C      0.79397   -0.26902    1.96618
C      4.86227   -3.77710   -1.58790
C      3.68623   -2.85216   -1.27410
N      4.55932   -6.17784   -0.55394
O      3.71787   -2.59604    0.12467
F      3.78551   -2.16667    2.74245
Cl    -0.41164    0.70079    2.79235
H      1.59746   -1.37109   -1.13500
H     -0.09722   -0.00787    0.02431
H      1.91340   -0.70771    3.78019
H      5.78880   -3.33245   -1.21268
H      4.95721   -3.88432   -2.67339
H      2.73882   -3.32426   -1.56004
H      3.80220   -1.91668   -1.83678
