31

C      9.05550    3.75301   -1.81903
C      8.58393    4.96691   -1.26304
C      8.70245    2.54356   -1.24983
C      9.22153   -0.11659    2.71928
C      7.78003    4.95862   -0.13999
C      9.88164    0.33089    3.85697
C      7.63591   -1.29003    4.11355
C      6.33644    2.58662    2.11671
C      7.86143    2.51023   -0.10935
C      8.07850   -0.92877    2.83404
C      7.40690    3.73179    0.46607
C      9.41289   -0.00437    5.13335
C      8.28123   -0.82199    5.25889
C      7.41936    1.31297    0.55985
C      7.35221   -1.49577    1.68324
N      6.63005    3.75733    1.59721
N      6.68859    1.35639    1.65767
N      7.24368   -1.13399    0.45224
N      7.80991    0.07908    0.04351
Cl    10.26043    0.60354    6.52990
Cl     7.65793   -1.28209    6.82390
H      9.70384    3.77424   -2.69057
H      8.86736    5.91110   -1.72062
H      9.09891    1.62489   -1.67350
H      9.60139    0.15667    1.74248
H      7.41798    5.87739    0.31142
H     10.76591    0.95421    3.77023
H      6.76593   -1.93001    4.22816
H      5.73253    2.58389    3.02277
H      6.82796   -2.43081    1.88525
H      7.86568    0.07724   -0.96813
