44

C      0.13923   -1.52692   -3.26924
C      2.18456   -0.24918   -3.26286
C      0.86195   -2.70943   -3.42610
C      2.92940   -1.42242   -3.42735
C      0.78679   -0.28289   -3.18274
C      2.25017   -2.63373   -3.50718
C     -0.40876   -1.85593    0.20181
C     -1.03451    0.84447   -1.81847
C      0.77849    0.02355    2.72478
C     -0.44137   -0.89475    2.58446
C      1.95022   -0.29015    1.78892
C      0.44574    2.33099   -3.36062
C     -0.59713    1.64778   -4.20937
C     -1.40286    0.45330    0.56332
C      0.90515    0.94445   -0.24101
C     -1.12503   -0.94230    1.19852
C      1.61470   -0.34969    0.28752
C     -0.05429    0.94687   -2.98394
N      0.90219   -1.57045   -0.07482
N     -0.50533    0.77744   -0.54789
O     -0.97532   -2.81791   -0.31737
O     -2.24828    0.79709   -2.02074
F      2.96628   -3.77780   -3.66164
H     -0.94192   -1.57523   -3.17958
H      2.71161    0.69771   -3.18658
H      0.36547   -3.67334   -3.46776
H      4.01312   -1.40560   -3.49307
H      0.46729    1.06505    2.58434
H      1.13705   -0.03346    3.75905
H     -0.16989   -1.91817    2.87080
H     -1.19479   -0.56556    3.31036
H      2.72550    0.47351    1.93202
H      2.39960   -1.25152    2.06246
H      1.45109    2.43107   -3.75927
H      0.12773    3.16026   -2.73491
H     -1.62398    1.99222   -4.15437
H     -0.28392    1.25390   -5.17094
H     -2.40981    0.47284    0.15223
H     -1.33575    1.24149    1.32170
H      1.00794    1.74069    0.50605
H      1.41046    1.29350   -1.13571
H     -2.09060   -1.43135    1.33827
H      2.56887   -0.42043   -0.23995
H      1.28370   -2.12922   -0.82958
