49

C      5.24271    1.18926    1.12873
C      3.31034    1.11334   -0.31801
C     -2.63906   -0.03574    0.29095
C      0.46566    1.82448   -2.54885
C     -1.81936    0.73882   -1.98242
C      1.94701    1.56478   -2.27518
C     -4.52578    0.68153    1.67404
C     -4.96544    0.18190   -0.66720
C     -5.04273    2.10260    1.45371
C     -5.48044    1.61084   -0.86163
C      0.98090    0.26983   -0.32583
C     -2.11249   -0.49129   -1.08383
C     -0.36914    0.53269   -2.46688
C      0.20905   -0.45380   -1.43435
C      6.27529    1.09559    2.20855
C     -6.60243    3.46288    0.20296
N      5.44990    1.70847   -0.04150
N      4.36164    1.67308   -0.88015
N      2.10994    0.97539   -0.93782
N     -3.99337    0.13541    0.42352
N     -6.04304    2.12815    0.38339
O     -1.85254    0.18014    1.21306
O     -0.89052   -1.20424   -0.92804
S      3.59453    0.57656    1.34330
H      0.10156    2.55018   -1.81296
H      0.36032    2.29330   -3.53208
H     -2.52773    0.81579   -2.81112
H     -1.89671    1.66129   -1.39975
H      2.37796    0.90060   -3.03761
H      2.51950    2.49421   -2.30922
H     -3.73078    0.66660    2.41806
H     -5.34876    0.03959    2.00982
H     -5.80884   -0.47169   -0.41295
H     -4.52911   -0.18008   -1.59619
H     -5.50784    2.46593    2.37637
H     -4.18618    2.76639    1.22635
H     -4.64956    2.24549   -1.23069
H     -6.26275    1.60970   -1.62901
H      0.32048    0.94315    0.23189
H      1.34961   -0.47661    0.38137
H     -2.81184   -1.18641   -1.55668
H     -0.37884    0.03682   -3.44299
H      0.88803   -1.17150   -1.90627
H      5.95956    1.62599    3.11342
H      6.47490    0.05412    2.48319
H      7.19983    1.54573    1.84084
H     -7.05995    3.79923    1.13858
H     -7.38181    3.43632   -0.56541
H     -5.84532    4.21109   -0.09863
