22

C     -0.46355   -0.06323   -1.83395
C     -0.87395    0.45669   -0.56403
C     -1.52022   -0.17781   -2.69097
C     -2.22151    0.71256   -0.48528
C     -0.67548   -4.06185    0.56432
C     -0.56905   -1.84147    1.43112
C     -0.48343   -5.40544   -0.06614
N     -1.81139   -3.64846    1.05435
N     -1.75815   -2.36655    1.54214
N     -0.27251   -0.56278    1.92007
O      0.11883    1.88675    1.47330
O      1.56035    0.13236    0.28651
S     -3.03266    0.33210   -1.97578
S      0.62282   -2.88160    0.69043
S      0.27909    0.61177    0.79080
Cl    -1.48192   -0.74464   -4.32080
Cl    -3.11579    1.28710    0.86530
H      0.56061   -0.32532   -2.06907
H     -0.17567   -5.31101   -1.11242
H      0.28204   -5.98520    0.45905
H     -1.43013   -5.94706   -0.02316
H     -1.05327   -0.18801    2.46208
