49

C     -1.35024    2.82845    2.31095
C     -1.46786    2.52993   -0.07763
C     -1.59754   -0.72087   -0.73817
C     -2.12894    2.48129   -3.74679
C     -2.50614    0.00154   -3.08300
C     -2.33525    2.92342   -2.29336
C     -3.99820   -1.49292   -0.78256
C     -3.00764   -0.58524    1.26255
C     -4.45364   -2.71681    0.01699
C     -3.48592   -1.81858    2.02231
C     -0.04904    1.91978   -2.01941
C     -1.50004   -0.86780   -2.27933
C     -1.62836    1.03663   -3.82833
C     -0.25180    0.88716   -3.15142
C     -1.01305    2.91206    3.76744
C     -5.21857   -3.49840    2.16653
N     -2.54707    2.99090    1.82947
N     -2.62679    2.83764    0.46706
N     -1.32036    2.31397   -1.41889
N     -2.82495   -0.89087   -0.15855
N     -4.70154   -2.36349    1.41171
O     -0.59635   -0.43472   -0.08277
O     -0.20342   -0.47166   -2.71291
S     -0.14525    2.45255    1.08257
H     -3.07228    2.60214   -4.28913
H     -1.40085    3.13298   -4.24419
H     -3.07517   -0.60730   -3.79036
H     -3.22206    0.48890   -2.42143
H     -2.29791    4.01836   -2.20870
H     -3.31685    2.62016   -1.92494
H     -3.77689   -1.79893   -1.80403
H     -4.81349   -0.75818   -0.81391
H     -3.74333    0.22183    1.35185
H     -2.05528   -0.23378    1.65569
H     -5.38160   -3.10178   -0.42083
H     -3.68449   -3.51033   -0.07319
H     -2.67404   -2.57130    2.04521
H     -3.70970   -1.53712    3.05691
H      0.57863    1.45380   -1.26038
H      0.48005    2.79972   -2.41815
H     -1.59556   -1.93068   -2.52800
H     -1.53202    0.74055   -4.87646
H      0.57299    0.99755   -3.86152
H     -0.61475    1.96208    4.14003
H     -0.26548    3.68787    3.96418
H     -1.92400    3.15369    4.31928
H     -6.15102   -3.85070    1.71341
H     -5.43688   -3.18757    3.19309
H     -4.51161   -4.34886    2.20727
