36

C      6.09639   -4.26702    1.84800
C      4.24008   -5.03524    2.44384
C      1.90677   -3.79146    0.82107
C      1.83114   -2.77914    2.90153
C      0.27979   -0.79052   -0.89877
C      1.71897   -0.28104   -0.61335
C      6.98584   -2.47518    0.24676
C      7.23627   -1.98018    1.63951
C      0.17958   -2.19123   -0.23137
C      2.50305   -1.53233   -0.18458
C      7.23440   -3.48071    1.36853
C      1.46057   -2.34559    0.61226
C      2.76653   -5.09943    2.76248
N      4.84901   -3.89092    1.97893
N      5.03690   -6.06314    2.59934
N      1.31508   -1.88297    1.99733
N      2.06871   -3.97307    2.18077
O      2.10969   -4.62584   -0.04364
O      2.03153   -2.62706    4.09407
O      6.29794   -5.54949    2.20220
H     -0.46955   -0.10011   -0.50189
H      0.09862   -0.86862   -1.97428
H      2.17168    0.21473   -1.47639
H      1.71024    0.45431    0.20035
H      5.97159   -2.42851   -0.13569
H      7.77168   -2.37281   -0.49504
H      8.19691   -1.53011    1.86931
H      6.39181   -1.59620    2.20209
H     -0.71073   -2.31543    0.38912
H      0.17765   -2.98205   -0.98641
H      2.79410   -2.12612   -1.05731
H      3.40027   -1.32861    0.40602
H      8.18328   -4.00519    1.38045
H      2.34641   -6.03208    2.38191
H      2.61626   -5.05406    3.84336
H      1.33360   -0.90286    2.24771
