41

C     -5.41078    5.33426   -2.72414
C     -5.39432    5.15142   -4.11072
C     -1.88455    3.12937   -0.97709
C     -2.89840    2.39520   -0.36820
C     -2.93709    3.08621   -4.55527
C     -3.94685    2.01677   -2.52988
C     -3.33055    6.39684   -4.22054
C     -2.93170    2.76691   -3.15323
C     -2.02010    3.93525   -5.08684
C     -4.37124    5.99317   -2.06240
C     -3.31592    6.54197   -2.83050
C     -4.33817    5.66649   -4.86272
C     -1.91126    3.31817   -2.36040
C     -3.92492    1.84853   -1.15410
C     -0.93679    4.46905   -4.24693
C     -2.12439    4.44718   -6.48366
C     -4.36465    6.09632   -0.55680
C     -2.16416    7.25100   -2.16114
C     -0.96506    4.18496   -7.41288
N     -3.13881    5.07999   -6.97676
N     -4.28497    5.36334   -6.26673
O     -0.07048    5.23930   -4.60721
O     -0.91573    4.07083   -2.91318
Br    -5.33372    0.87146   -0.29766
H     -6.22589    4.90912   -2.14306
H     -6.17061    4.57312   -4.60484
H     -1.08026    3.56868   -0.39527
H     -2.89926    2.25201    0.70715
H     -3.74531    2.70980   -5.17658
H     -4.75331    1.60521   -3.12839
H     -2.51481    6.80717   -4.80914
H     -3.47365    5.62032   -0.13170
H     -4.36094    7.13995   -0.22113
H     -5.24104    5.60615   -0.12514
H     -2.50607    8.10900   -1.57085
H     -1.63630    6.57850   -1.47496
H     -1.43708    7.60527   -2.89480
H     -0.75950    3.10937   -7.47912
H     -1.19983    4.56612   -8.40863
H     -0.05758    4.67008   -7.04182
H     -4.87578    5.95531   -6.83831
