37

C     -1.09914    5.19916    2.43040
C      2.39574    2.59196    6.42517
C      1.60278    4.89328    6.47228
C      3.07619    2.79139    7.62978
C      2.28363    5.10140    7.67476
C      1.64494    3.63275    5.85219
C      3.03046    4.05467    8.22230
C     -0.29659    2.81803    2.18020
C     -0.52335    1.17300    0.75772
C     -0.33639    4.08362    2.91271
C     -0.95851    0.37198   -0.42400
C     -2.49082    0.29372   -0.58569
C     -3.14693    1.57493   -1.12103
C     -3.01339    2.82425   -0.23742
C     -1.57592    3.31332   -0.02862
N     -1.73196    6.09115    2.02398
N      0.31328    1.73898    2.67202
N      0.16589    0.70806    1.78203
N      0.27143    4.31666    4.05934
N     -0.83677    2.49916    0.94802
N      0.98449    3.37719    4.64191
I      3.48646    4.16598   10.48684
H      2.44117    1.62148    5.93640
H      1.03472    5.69634    6.01615
H      3.63674    1.97741    8.07690
H      2.23862    6.07113    8.15925
H     -0.51126    0.77828   -1.34127
H     -0.54176   -0.62775   -0.28142
H     -2.71402   -0.52260   -1.28146
H     -2.93694    0.01440    0.37641
H     -2.72783    1.79986   -2.11165
H     -4.21332    1.37848   -1.28036
H     -3.56793    3.64420   -0.70703
H     -3.47481    2.65773    0.74312
H     -1.01893    3.28761   -0.97178
H     -1.57476    4.34230    0.31609
H      1.03210    2.44463    4.19629
