35

C     -1.54986   -2.56148    0.79770
C     -0.72065   -1.53868    0.27810
C     -1.04430   -3.83497    0.94607
C      0.58980   -1.80032   -0.07062
C      0.81547   -5.44972    0.73399
C      2.11210   -5.73921    0.38240
C      0.29999   -4.13272    0.59563
C      1.15240   -3.09835    0.08977
C      2.51555   -3.41249   -0.26542
C      5.30747   -1.45999   -1.71006
C      2.96740   -4.72845   -0.12249
C      5.82116   -0.57850   -0.74040
C      5.82113   -1.32573   -3.01359
C      6.78380    0.38026   -1.04858
C      6.76743   -0.36018   -3.34078
C      7.25467    0.49825   -2.35461
C      3.41668   -2.33325   -0.67587
C      4.52737   -5.58691   -1.68338
N      4.43024   -2.51162   -1.44908
O      4.26971   -5.07789   -0.36347
F      5.41689   -0.67629    0.54192
F      5.37850   -2.14271   -3.98266
F      7.25770    1.19335   -0.09213
F      7.21691   -0.25032   -4.59986
F      8.16897    1.42858   -2.66205
H     -2.57915   -2.34160    1.06724
H     -1.12200   -0.53772    0.14352
H     -1.67142   -4.63556    1.33123
H      1.18139   -0.99593   -0.49364
H      0.16813   -6.22954    1.12831
H      2.52292   -6.73743    0.50316
H      3.18118   -1.34120   -0.28004
H      5.58668   -5.84834   -1.70250
H      4.32465   -4.81880   -2.43425
H      3.92336   -6.48276   -1.87559
