41

C      0.73098   -9.55125    4.29380
C      0.00282   -8.71084    5.15874
C      0.70854   -1.92626   -0.16094
C      1.23919   -9.08320    3.07836
C     -0.24305   -7.37124    4.83425
C     -0.22384   -0.89052   -0.10030
C     -1.31746   -1.81024   -2.06805
C      0.65410   -2.92148   -1.15265
C      1.00640   -7.74592    2.73708
C      0.27285   -6.91398    3.62178
C     -0.36373   -2.83509   -2.12370
C     -1.24130   -0.85631   -1.05693
C      0.90075   -5.82976    1.79006
C      1.63848   -4.04301   -1.14706
C      2.49244   -4.27229   -2.36893
C      1.68527   -4.84175   -3.54773
C      0.57599   -3.92594   -4.05046
C     -0.34500   -4.45160    3.53432
N      1.37555   -7.03630    1.59538
N      1.79743   -4.86583   -0.16797
N      0.23253   -5.66838    2.99702
N      1.01715   -4.72487    0.95026
O     -0.51939   -3.76499   -3.11943
Br    -2.55482    0.53711   -0.98763
H      0.89761  -10.58661    4.57915
H     -0.37934   -9.10941    6.09463
H      1.50232   -1.97098    0.58025
H      1.79869   -9.73038    2.40898
H     -0.81336   -6.72988    5.50126
H     -0.16191   -0.13090    0.67161
H     -2.09909   -1.78327   -2.81944
H      2.96290   -3.32745   -2.67199
H      3.28361   -4.97445   -2.09561
H      2.36501   -5.02656   -4.38921
H      1.25172   -5.80612   -3.26233
H      0.96916   -2.93412   -4.30902
H      0.10914   -4.35264   -4.94135
H      0.19893   -3.58545    3.14980
H     -1.40704   -4.35253    3.27880
H     -0.24714   -4.45592    4.62271
H      0.17715   -4.15289    0.86010
