28   

C       -0.9854895384    0.3267480754    0.5226492411
C       -2.0397898171   -0.5906549562    0.6219404887
C       -1.7876341418    1.4787848802    2.5033975927
C       -3.9210815156    0.3917739006    3.5397769427
C       -2.8335733509    0.5550572107    2.5903435161
C       -0.8411184357    1.3735596841    1.4584308379
C       -2.9502385169   -0.4568729001    1.6624990218
C       -4.6570454247   -0.7109892841    3.1426344409
C       -5.7902527125   -1.3931287484    3.7610273493
C        1.2178430886    2.2846688980    2.5632230321
C       -0.2032422287    3.7693343235    1.0968216712
C        0.3126078565    2.3468604039    1.3295399546
N       -4.0542572892   -1.2384124042    1.9779527947
O       -6.1773432009   -2.5078616311    3.4361591648
O       -6.3709097378   -0.7100378209    4.7754248976
H       -0.2734230598    0.2207420717   -0.2876602039
H       -2.1432748359   -1.3939130444   -0.0965889046
H       -1.7105326888    2.2653759603    3.2437041458
H       -4.1133489043    1.0002072564    4.4152733118
H        0.6735412146    2.5786091485    3.4656701452
H        2.0727803213    2.9565949115    2.4387972891
H        1.5967426002    1.2666517316    2.6989220488
H       -0.8001610049    4.1142546258    1.9464430832
H       -0.8254318641    3.7991166864    0.1966628617
H        0.6362023992    4.4578525059    0.9586004486
H        0.9166088042    2.0655140890    0.4603219784
H       -4.3657624208   -2.0792249261    1.4957392021
H       -7.0838828506   -1.2873274193    5.0923049907
28   

C       -0.7174472065    0.1385306002    0.7997832265
C       -1.7267102538   -0.8235638646    0.9377235944
C       -1.8739816015    1.5910019504    2.3637629818
C       -4.0728014776    0.5522982142    3.3072384975
C       -2.8717329834    0.6201932375    2.4933320350
C       -0.7729024056    1.3582123333    1.5080797879
C       -2.7927079447   -0.5610179615    1.7888972161
C       -4.6811426212   -0.6639054536    3.0512502774
C       -5.8041141019   -1.3321243718    3.7081728754
C        1.0251562941    2.6526103581    2.6887698747
C       -0.1996622842    3.6667212154    0.7279126980
C        0.3387171337    2.3749818673    1.3478721414
N       -3.8849508547   -1.3567908678    2.1104314921
O       -5.9340257219   -2.5466154377    3.7764410529
O       -6.6677994152   -0.4930989735    4.3264472882
H        0.1169189731   -0.0684144323    0.1395666735
H       -1.6753291224   -1.7600216490    0.3967934539
H       -1.9512650186    2.5110969083    2.9295914053
H       -4.4121636769    1.2921168188    4.0221091242
H        0.3240594003    3.0865111942    3.4079316973
H        1.8562346817    3.3511768871    2.5500948820
H        1.4234564475    1.7221278631    3.1057721811
H       -0.9495851108    4.1296459024    1.3763933404
H       -0.6597453655    3.4525589381   -0.2420077169
H        0.6156898846    4.3801393229    0.5728459370
H        1.0941957060    1.9679655823    0.6673553737
H       -4.0525430971   -2.3117749666    1.8006834580
H       -7.3292356924   -1.0712590406    4.7389834032
28   

C       -0.7419464622    0.1671235300    0.7550597986
C       -1.7572408053   -0.7902783358    0.8817085242
C       -1.8838503257    1.6033259699    2.3443927814
C       -4.0776410552    0.5582784488    3.2905572827
C       -2.8871396323    0.6368486629    2.4629415232
C       -0.7867915097    1.3761369190    1.4821604249
C       -2.8186134618   -0.5338814460    1.7406362885
C       -4.6936213610   -0.6508097569    3.0216005853
C       -5.7700641126   -1.3410629969    3.7408592179
C        1.0189480565    2.6426887588    2.6831675449
C       -0.1935985938    3.6886409357    0.7315328283
C        0.3334566956    2.3858074462    1.3374368101
N       -3.9096984875   -1.3319042886    2.0613840451
O       -5.7641513957   -2.5341678982    4.0049147043
O       -6.7399895495   -0.5200693146    4.2060862691
H        0.0897539490   -0.0359414170    0.0902886377
H       -1.7123870648   -1.7197060506    0.3282446350
H       -1.9520510204    2.5140884649    2.9262508833
H       -4.3959732214    1.2796481098    4.0332925116
H        0.3199577526    3.0743765649    3.4056892874
H        1.8560452755    3.3359502985    2.5543375264
H        1.4087353918    1.7044239392    3.0906835122
H       -0.9421872635    4.1489064606    1.3834540499
H       -0.6522911464    3.4893485704   -0.2421962067
H        0.6273499119    4.3979286116    0.5874652169
H        1.0876655745    1.9809150162    0.6542504843
H       -4.0661523153   -2.2892119120    1.7543313759
H       -7.3488014360   -1.0987780901    4.6921954088
28   

C       -0.7748917317    0.1801102163    0.7182696655
C       -1.7968038372   -0.7711194918    0.8389148391
C       -1.8939657920    1.6025484703    2.3357527758
C       -4.0827710294    0.5567259811    3.2907124850
C       -2.9035020429    0.6419147016    2.4484484583
C       -0.8049179803    1.3790835895    1.4625610885
C       -2.8498300732   -0.5188352434    1.7094006105
C       -4.7088442116   -0.6439031980    3.0121550669
C       -5.7521873969   -1.3441299480    3.7827636174
C        1.0156172081    2.6179669930    2.6718019521
C       -0.1953203043    3.6943268620    0.7358736655
C        0.3233743725    2.3809407115    1.3257298474
N       -3.9415092479   -1.3158022844    2.0315930713
O       -5.6274556102   -2.4655034200    4.2472446862
O       -6.8370026811   -0.5839032886    4.0569234919
H        0.0509463877   -0.0204288738    0.0454710705
H       -1.7621540715   -1.6936208635    0.2732970552
H       -1.9501022463    2.5047804021    2.9320006067
H       -4.3798192418    1.2635557086    4.0557599501
H        0.3229505160    3.0480129260    3.4013463253
H        1.8580412412    3.3055590675    2.5472987383
H        1.3990177160    1.6723319990    3.0681927945
H       -0.9384695164    4.1528918382    1.3951888309
H       -0.6584270309    3.5092562374   -0.2385656205
H        0.6306325925    4.3988491826    0.5971538712
H        1.0721473982    1.9774092307    0.6357935673
H       -4.0975653774   -2.2700134802    1.7164360113
H       -7.4073925628   -1.1457266146    4.6053163486
28   

C       -0.7867936890    0.1961217846    0.7047008643
C       -1.8108497921   -0.7524027542    0.8284057346
C       -1.8772741346    1.6036179332    2.3544264019
C       -4.0580945481    0.5560275521    3.3260618367
C       -2.8890722004    0.6456613713    2.4700302693
C       -0.8016467367    1.3864261169    1.4631871107
C       -2.8505922590   -0.5063191689    1.7165334472
C       -4.6915295561   -0.6365995712    3.0422404410
C       -5.7436563493   -1.3296083416    3.8250237614
C        1.0383712711    2.6089343856    2.6603220480
C       -0.1943706102    3.7061515970    0.7500352716
C        0.3280426254    2.3860260545    1.3212857409
N       -3.9422796134   -1.3016577009    2.0428408458
O       -5.5533278557   -2.3220947437    4.5044438432
O       -6.9391943953   -0.6977635853    3.8179585211
H        0.0286535271    0.0004642740    0.0179287229
H       -1.7878686958   -1.6680203664    0.2511634032
H       -1.9216079222    2.4991949520    2.9615886620
H       -4.3422576590    1.2568656952    4.1012996752
H        0.3566176507    3.0345975827    3.4025949148
H        1.8812467230    3.2950811867    2.5309789708
H        1.4239244055    1.6586527229    3.0432727939
H       -0.9278650673    4.1605974207    1.4228824279
H       -0.6703141442    3.5312513055   -0.2200932385
H        0.6317029222    4.4097183483    0.6072442454
H        1.0666766594    1.9866300036    0.6181379840
H       -4.1120041977   -2.2451721306    1.7049803490
H       -7.5086066143   -1.2264171540    4.3992089229
28   

C       -0.7402540411    0.1687487529    0.8105053347
C       -1.7421389335   -0.7946650348    0.9863106853
C       -1.7921130117    1.5819483211    2.4808911570
C       -3.9463953113    0.5322985146    3.5148979507
C       -2.7840696177    0.6104170336    2.6467660211
C       -0.7476574918    1.3698066348    1.5517603738
C       -2.7523367640   -0.5520791310    1.9086195895
C       -4.5678453863   -0.6674623433    3.2654296198
C       -5.7607136132   -1.2733499419    3.9280683613
C        1.1327576690    2.6254808777    2.6394314072
C       -0.2263064649    3.7027824223    0.8045926632
C        0.3514166951    2.3914395388    1.3432614440
N       -3.8339300529   -1.3472823591    2.2650103611
O       -5.7207123935   -2.0011817551    4.8993623941
O       -6.9343942279   -0.9415895545    3.3443245581
H        0.0494708581   -0.0213910046    0.0928084555
H       -1.7290357906   -1.7151158675    0.4165045228
H       -1.8324667384    2.4889087869    3.0712121981
H       -4.2579647814    1.2718776470    4.2420528412
H        0.4853885191    3.0347497104    3.4207350226
H        1.9528704877    3.3287956526    2.4643270548
H        1.5583192269    1.6819984153    2.9958865688
H       -0.9255250626    4.1463900297    1.5197611413
H       -0.7562140543    3.5198773714   -0.1356533130
H        0.5780675120    4.4198142525    0.6130586748
H        1.0547729337    2.0062661044    0.5972979074
H       -4.0448280828   -2.2683794285    1.8916665021
H       -7.6150442962   -1.3880897869    3.8722929908
28   

C       -0.7128196569    0.1022596477    0.9101800366
C       -1.7003489995   -0.8661429778    1.1341605284
C       -1.7286799987    1.5393956101    2.5822051256
C       -3.8724605688    0.5156319156    3.6605215502
C       -2.7078837483    0.5639722914    2.7938919763
C       -0.7099675276    1.3180106990    1.6272005200
C       -2.6862316802   -0.6135559902    2.0798488741
C       -4.4942707223   -0.6959417128    3.4531348401
C       -5.8127149268   -1.1594621454    3.9537379226
C        1.2082613291    2.5931621514    2.6128086816
C       -0.2484996295    3.6565839319    0.8462601482
C        0.3657297844    2.3502837480    1.3579418550
N       -3.7686585441   -1.3965295465    2.4604109627
O       -6.0629183745   -1.5071615922    5.0908484677
O       -6.7325112856   -1.2898793628    2.9693181166
H        0.0547179193   -0.0933199851    0.1702299909
H       -1.6998414421   -1.7944896475    0.5771622491
H       -1.7649102471    2.4609128518    3.1498456328
H       -4.2161304987    1.3022979473    4.3209420591
H        0.5954837323    2.9953899688    3.4251250698
H        2.0112073766    3.3048766333    2.3970040092
H        1.6605138426    1.6540900930    2.9473156792
H       -0.9117502041    4.0993295100    1.5953581661
H       -0.8257177161    3.4677520600   -0.0645078469
H        0.5400733755    4.3780986943    0.6107166331
H        1.0331655110    1.9695925264    0.5774818739
H       -4.0374232822   -2.2857008237    2.0486750939
H       -7.5290029047   -1.6221540149    3.4130782858
28   

C       -0.7061214789    0.1273923887    0.9285006053
C       -1.7002079968   -0.8288497550    1.1756194341
C       -1.6885035250    1.5942128390    2.5944914610
C       -3.8328451403    0.6090382497    3.7041335985
C       -2.6746786077    0.6312147862    2.8285038033
C       -0.6829796738    1.3514777502    1.6309697456
C       -2.6725879614   -0.5556853287    2.1296025483
C       -4.4701540256   -0.6024412540    3.5213735214
C       -5.7970469325   -1.0163893167    4.0153400257
C        1.2694825841    2.6039815299    2.5735960378
C       -0.2088920174    3.6845886562    0.8359112213
C        0.3986356254    2.3706582425    1.3365057798
N       -3.7605896301   -1.3213462669    2.5299583383
O       -6.1430820753   -1.0740225870    5.1799780831
O       -6.5972804119   -1.4937852839    3.0314343272
H        0.0505766899   -0.0841816051    0.1818262673
H       -1.7155688478   -1.7634978092    0.6294715987
H       -1.7098562266    2.5228947477    3.1511323019
H       -4.1673670872    1.4114022772    4.3504880911
H        0.6777836902    3.0131106732    3.3980472771
H        2.0760356708    3.3063376845    2.3412397894
H        1.7175109954    1.6597517557    2.8991525446
H       -0.8491936111    4.1381149459    1.5983824267
H       -0.8084437677    3.5024143207   -0.0616722650
H        0.5841972571    4.3948056451    0.5818861077
H        1.0446787320    1.9807692646    0.5427103368
H       -4.0615638252   -2.2008315098    2.1187036964
H       -7.4127433116   -1.7632273987    3.4838039732
28   

C       -0.7212975457    0.1480339758    0.9001034161
C       -1.7253705063   -0.8007252982    1.1358222182
C       -1.6889307953    1.6056939605    2.5826727043
C       -3.8410039543    0.6292100642    3.6840221314
C       -2.6849475148    0.6503070870    2.8054504560
C       -0.6857259463    1.3636876834    1.6166390823
C       -2.6952421972   -0.5287026197    2.0926679961
C       -4.4920259588   -0.5742330348    3.4858596909
C       -5.8049862226   -0.9857437453    3.9977311689
C        1.2755084354    2.5900108341    2.5769676785
C       -0.1867464003    3.6982022541    0.8431202432
C        0.4069032194    2.3747070650    1.3349393547
N       -3.7901427605   -1.2883882526    2.4859783173
O       -6.2134288495   -0.8290928908    5.1335999578
O       -6.5168254564   -1.7117920929    3.1000728863
H        0.0336728616   -0.0628509103    0.1514951044
H       -1.7499382019   -1.7290755580    0.5793607436
H       -1.7005966922    2.5277998026    3.1504558535
H       -4.1637022365    1.4233817539    4.3465608948
H        0.6849753613    2.9985881389    3.4025234381
H        2.0896135830    3.2863314291    2.3529088569
H        1.7132794692    1.6390448789    2.8968058330
H       -0.8260097162    4.1508992175    1.6069748052
H       -0.7844072565    3.5289709669   -0.0582477079
H        0.6136619253    4.4033735142    0.5981706380
H        1.0522363662    1.9852460882    0.5403643034
H       -4.1024835942   -2.1631334100    2.0720424355
H       -7.3344397010   -1.9480321447    3.5672909090
28   

C       -0.7422261674    0.1720060532    0.8605119518
C       -1.7583093461   -0.7689031959    1.0753050868
C       -1.7073835747    1.6172111675    2.5553020416
C       -3.8732862278    0.6455670734    3.6338154792
C       -2.7152539746    0.6697474632    2.7575006548
C       -0.6991228735    1.3772729655    1.5940130719
C       -2.7327559661   -0.4994450082    2.0281729318
C       -4.5359977470   -0.5478606947    3.4122954464
C       -5.8264074028   -0.9786581975    3.9521444807
C        1.2656990716    2.5698147412    2.5901091968
C       -0.1656955897    3.7145985851    0.8542927695
C        0.4079951411    2.3789158627    1.3364461298
N       -3.8354554194   -1.2551620314    2.4071341298
O       -6.2991767223   -0.6495571103    5.0249264598
O       -6.4478571103   -1.8996984904    3.1728296888
H        0.0168548759   -0.0372662111    0.1156205663
H       -1.7877360657   -1.6899102391    0.5069990613
H       -1.7127354300    2.5308871692    3.1366663438
H       -4.1848530579    1.4261867207    4.3176456965
H        0.6712033791    2.9756619975    3.4141617853
H        2.0900282068    3.2592751791    2.3828199526
H        1.6892408715    1.6102811806    2.9034614652
H       -0.8083473343    4.1649946316    1.6166734251
H       -0.7552903460    3.5626856513   -0.0554287403
H        0.6449900432    4.4137605190    0.6265446661
H        1.0575365371    1.9915849910    0.5442651782
H       -4.1454732668   -2.1332971574    1.9978478158
H       -7.2640567006   -2.1161968260    3.6521882543
28   

C       -0.7434476072    0.2173498282    0.8105901266
C       -1.7708848242   -0.7149569125    1.0082207368
C       -1.6913309662    1.6432144019    2.5313877517
C       -3.8616785239    0.6727133667    3.6019861071
C       -2.7101256369    0.7041524635    2.7171006189
C       -0.6860683794    1.4086427993    1.5656542367
C       -2.7422203917   -0.4510866021    1.9657876965
C       -4.5400916984   -0.5068694271    3.3555514157
C       -5.7976079818   -0.9650496595    3.9413779777
C        1.2831345053    2.5724671162    2.5904843988
C       -0.1223479031    3.7452770990    0.8522091708
C        0.4343514982    2.4003062028    1.3278437242
N       -3.8501503319   -1.2034668138    2.3361281562
O       -6.3343521811   -0.5044209199    4.9328328499
O       -6.3285656257   -2.0351609851    3.2964523500
H        0.0137495548    0.0120149930    0.0626948459
H       -1.8104926768   -1.6258049555    0.4243696295
H       -1.6849283825    2.5455284793    3.1302379689
H       -4.1528835387    1.4341077065    4.3159393209
H        0.6863696812    2.9790705893    3.4124943091
H        2.1167269302    3.2543255799    2.3954183391
H        1.6934819862    1.6061117065    2.9003945730
H       -0.7685334044    4.1942306688    1.6124884323
H       -0.7044491941    3.6067142572   -0.0644471962
H        0.6967429633    4.4390622923    0.6385774145
H        1.0872300396    2.0130550785    0.5383747853
H       -4.1559719787   -2.0869185233    1.9347406468
H       -7.1388844243   -2.2414377005    3.7902085863
28   

C       -0.7819197928    0.2344681886    0.7772695044
C       -1.8239810221   -0.6845607214    0.9601136607
C       -1.7179914415    1.6568755782    2.5073606227
C       -3.9008748495    0.7017331899    3.5659915564
C       -2.7512419773    0.7309737620    2.6785076903
C       -0.7109340136    1.4170245716    1.5448245621
C       -2.7965067997   -0.4160173671    1.9151788796
C       -4.5963085683   -0.4641253137    3.3025064698
C       -5.8215452716   -0.9477713425    3.9326791651
C        1.2683497237    2.5402064676    2.5962838419
C       -0.1047017359    3.7504417161    0.8577557231
C        0.4270730942    2.3927634079    1.3253657773
N       -3.9126731909   -1.1597559067    2.2783019051
O       -6.4421167964   -0.3834280649    4.8158495214
O       -6.2440803571   -2.1388338908    3.4365047734
H       -0.0231865848    0.0249667668    0.0320924145
H       -1.8728198577   -1.5897157461    0.3681648423
H       -1.7004000554    2.5519052944    3.1168281462
H       -4.1728551250    1.4494342359    4.3017118990
H        0.6716407450    2.9489504828    3.4172682980
H        2.1141393663    3.2104900230    2.4139889222
H        1.6609882524    1.5648010434    2.9007554435
H       -0.7502606529    4.2022147926    1.6169036584
H       -0.6811956179    3.6292566382   -0.0648793382
H        0.7267778046    4.4333425277    0.6573572534
H        1.0802634046    2.0023522682    0.5377147900
H       -4.2107464210   -2.0525578467    1.8918945033
H       -7.0526770119   -2.3389834904    3.9356180269
28   

C       -0.7984755229    0.2656026471    0.7412442918
C       -1.8498470241   -0.6456898502    0.9087112288
C       -1.7284150309    1.6757366765    2.4846462819
C       -3.9174267811    0.7216335631    3.5317246204
C       -2.7708496291    0.7574297203    2.6405663410
C       -0.7193855098    1.4378467846    1.5236647567
C       -2.8237254658   -0.3795749643    1.8630688749
C       -4.6235517380   -0.4336223820    3.2503700097
C       -5.8116275527   -0.9527619262    3.9237487212
C        1.2644226092    2.5283964207    2.6017909762
C       -0.0832675819    3.7714207277    0.8665428134
C        0.4307599435    2.4034126684    1.3233173975
N       -3.9432938807   -1.1217317970    2.2187469299
O       -6.5321557814   -0.3307616817    4.6834922571
O       -6.1018365373   -2.2342520129    3.5823609875
H       -0.0380365446    0.0574124851   -0.0025612536
H       -1.9037103386   -1.5440303179    0.3068988009
H       -1.7037422048    2.5620190929    3.1065207652
H       -4.1731706979    1.4519045129    4.2903749262
H        0.6664620459    2.9352486106    3.4227966420
H        2.1188117649    3.1911639272    2.4325424802
H        1.6442360878    1.5456705663    2.8989280203
H       -0.7298210033    4.2215706696    1.6258137002
H       -0.6540661962    3.6660758951   -0.0615548232
H        0.7567620245    4.4476557331    0.6796896418
H        1.0856311891    2.0143773890    0.5363801287
H       -4.2275520320   -2.0241213945    1.8445596275
H       -6.9081576803   -2.4440313728    4.0811602663
28   

C       -0.8591000581    0.2744145184    0.7133233533
C       -1.9231821893   -0.6243633482    0.8675907768
C       -1.7667375143    1.6691295009    2.4806446601
C       -3.9605413343    0.7219725115    3.5239744369
C       -2.8214550648    0.7627851387    2.6237699625
C       -0.7624924625    1.4327181429    1.5142914683
C       -2.8920066057   -0.3598408985    1.8275478816
C       -4.6860709524   -0.4163111872    3.2232415021
C       -5.8386814728   -0.9680592267    3.9368512601
C        1.2292762240    2.4902933642    2.6140499342
C       -0.0916560585    3.7607865951    0.8781167976
C        0.4022572760    2.3837756056    1.3293925757
N       -4.0176269934   -1.0954379931    2.1776061977
O       -6.6632245739   -0.3301812168    4.5660720401
O       -5.9866055056   -2.3047558887    3.7546224743
H       -0.1021044377    0.0669738642   -0.0341979384
H       -1.9897424993   -1.5127752404    0.2524601559
H       -1.7279052846    2.5440208297    3.1177269480
H       -4.1920528005    1.4323195191    4.3087510361
H        0.6320321407    2.9009629862    3.4336413956
H        2.0936331582    3.1423304531    2.4539166409
H        1.5939311891    1.5009281852    2.9081166490
H       -0.7390355548    4.2129802084    1.6354953485
H       -0.6563207186    3.6684816341   -0.0551122315
H        0.7577678689    4.4282352607    0.7025205021
H        1.0576302428    1.9913001258    0.5445810008
H       -4.2947377761   -2.0024592731    1.8098159354
H       -6.7898809315   -2.5325993386    4.2502775058
28   

C       -0.8928634186    0.2983705289    0.6839864272
C       -1.9718703197   -0.5846166395    0.8252208462
C       -1.7859211227    1.6905912446    2.4605832589
C       -3.9938153491    0.7631082391    3.4915516086
C       -2.8554089364    0.7996910399    2.5907221265
C       -0.7812004816    1.4472467619    1.4964625389
C       -2.9405282211   -0.3136500464    1.7835943605
C       -4.7373286877   -0.3591525146    3.1767644894
C       -5.8680229722   -0.9306431795    3.9184847065
C        1.2205699210    2.4629861368    2.6183519343
C       -0.0673504824    3.7682204636    0.8833797402
C        0.4006778077    2.3799308859    1.3272940613
N       -4.0758240645   -1.0378757667    2.1259713359
O       -6.8039965676   -0.3109462785    4.3891141453
O       -5.8618331644   -2.2869442126    3.9262960808
H       -0.1355538297    0.0854257965   -0.0616702765
H       -2.0491442853   -1.4667114061    0.2023045371
H       -1.7350890034    2.5578474486    3.1071708074
H       -4.2068296529    1.4610122674    4.2923982449
H        0.6248302244    2.8775897007    3.4370476316
H        2.0968035454    3.1015936166    2.4689680862
H        1.5666623481    1.4655133066    2.9074355225
H       -0.7127679576    4.2249374449    1.6397223220
H       -0.6267091172    3.6923084241   -0.0545072780
H        0.7941033297    4.4229923185    0.7190541533
H        1.0549841763    1.9825590425    0.5440552051
H       -4.3485762352   -1.9473732315    1.7619665953
H       -6.6669049269   -2.5341898454    4.4093324812
28   

C       -0.9188196702    0.3137776179    0.6605631961
C       -2.0062155267   -0.5605743601    0.7899951821
C       -1.8007460664    1.6923994503    2.4532628094
C       -4.0162755048    0.7696781885    3.4731167595
C       -2.8786275827    0.8098836139    2.5716109738
C       -0.7973026935    1.4515095767    1.4871119739
C       -2.9731906136   -0.2921715428    1.7507989572
C       -4.7699200906   -0.3396920674    3.1436219910
C       -5.8940696780   -0.9315941741    3.8932503350
C        1.2098514385    2.4392378664    2.6255768601
C       -0.0600940025    3.7704881746    0.8970330967
C        0.3939327687    2.3744864218    1.3309011770
N       -4.1140751542   -1.0114268364    2.0844483539
O       -6.9383429236   -0.3764327842    4.1773857444
O       -5.7289727119   -2.2562144772    4.1266495894
H       -0.1625841593    0.1026239589   -0.0866986577
H       -2.0907298585   -1.4345181617    0.1566232566
H       -1.7420932724    2.5508525524    3.1108135190
H       -4.2177125422    1.4552211801    4.2873163884
H        0.6151862170    2.8527527326    3.4455845122
H        2.0925501854    3.0708073466    2.4845431375
H        1.5456088607    1.4362404514    2.9076562295
H       -0.7048171022    4.2261225014    1.6546241149
H       -0.6161288005    3.7074153529   -0.0437824072
H        0.8076749125    4.4191274941    0.7419023905
H        1.0476826064    1.9778300709    0.5468276485
H       -4.3866515014   -1.9158273026    1.7089858461
H       -6.5393636914   -2.5301201215    4.5854079895
28   

C       -0.9208396459    0.2847072512    0.6481943013
C       -1.9945722976   -0.6080334126    0.7635038925
C       -1.8363288190    1.6338259304    2.4467383786
C       -4.0482813151    0.6699306682    3.4391282235
C       -2.9011304555    0.7335317666    2.5505194813
C       -0.8227940801    1.4169457724    1.4852127158
C       -2.9715272267   -0.3632418957    1.7204401036
C       -4.7772240244   -0.4476294908    3.0966810807
C       -5.9288305161   -1.0575531594    3.8076997447
C        1.1715951772    2.4102376072    2.6374114470
C       -0.1198512737    3.7586395499    0.9380902815
C        0.3539750242    2.3605069252    1.3433708044
N       -4.1043428938   -1.1019785469    2.0374860121
O       -7.0651516508   -0.6275459136    3.8273465415
O       -5.6305275470   -2.2570263295    4.3594205620
H       -0.1569152960    0.0922680473   -0.0963043024
H       -2.0612385544   -1.4774511522    0.1218315995
H       -1.7956820386    2.4878996464    3.1112895623
H       -4.2721712671    1.3515010434    4.2505731221
H        0.5720986446    2.7970850081    3.4668844743
H        2.0444998514    3.0577312080    2.5081785227
H        1.5228094586    1.4065916217    2.8975646962
H       -0.7675342077    4.1915272184    1.7063720099
H       -0.6782685994    3.7065212038   -0.0019828679
H        0.7389344332    4.4213422460    0.7926814898
H        1.0111205271    1.9888069451    0.5499522513
H       -4.3685843277   -1.9951354016    1.6314887546
H       -6.4595982319   -2.5606947778    4.7621061945
28   

C       -0.8224155342    0.2406914319    0.7072331162
C       -1.8632084400   -0.6885644584    0.8340414926
C       -1.7637031008    1.5569755515    2.5169579195
C       -3.9601724292    0.5444208695    3.4978403269
C       -2.7972621469    0.6219654130    2.6304390574
C       -0.7543565766    1.3755781561    1.5435666711
C       -2.8376657383   -0.4772773237    1.8014049074
C       -4.6512399243   -0.5942563146    3.1606607866
C       -5.9479945077   -1.1089150896    3.6923408626
C        1.2360086708    2.4193796729    2.6489260827
C       -0.1534851571    3.7541820691    1.0174001245
C        0.3807257735    2.3655962114    1.3804039090
N       -3.9583997564   -1.2381045995    2.1084930702
O       -7.0409112536   -0.8423953158    3.2349022983
O       -5.8118255444   -1.9267385541    4.7605031883
H       -0.0633842562    0.0774361314   -0.0491574099
H       -1.9110619998   -1.5555616403    0.1874300258
H       -1.7493299041    2.4159523007    3.1762280171
H       -4.2457270156    1.2612214623    4.2577499083
H        0.6478625654    2.7655880159    3.5041359118
H        2.0799431575    3.1016781357    2.5072191229
H        1.6315918540    1.4242401242    2.8759279185
H       -0.7882273061    4.1524083418    1.8146088578
H       -0.7414775008    3.7001707477    0.0956246360
H        0.6773191598    4.4481049203    0.8557415319
H        1.0241872958    2.0329276763    0.5589301610
H       -4.2447283570   -2.0930312456    1.6400918066
H       -6.7168705424   -2.1762590063    5.0055148897
28   

C       -0.7475708715    0.1614937531    0.7545284662
C       -1.7504692951   -0.8055833133    0.9050249486
C       -1.6919698307    1.4409863092    2.5883215233
C       -3.8513081735    0.3746548659    3.5871694686
C       -2.6887518980    0.4698656374    2.7229727585
C       -0.7010720053    1.2980461035    1.5902514659
C       -2.7094127629   -0.6303024356    1.8950231110
C       -4.5177212593   -0.7890634660    3.2618941724
C       -5.8931500848   -1.1982705473    3.6370293352
C        1.2916872592    2.4018836492    2.6241587988
C       -0.2159977869    3.7096977833    1.0784415639
C        0.3849272708    2.3359696953    1.3931363207
N       -3.8117288780   -1.4162761866    2.2080174029
O       -6.8444208643   -1.1888765178    2.8768579809
O       -6.0418247490   -1.4850948221    4.9501236154
H       -0.0042119703    0.0290179929   -0.0231345129
H       -1.7862189840   -1.6697283565    0.2538201111
H       -1.6977884532    2.3028347436    3.2439534119
H       -4.1820834020    1.1164857977    4.3035430459
H        0.7271203569    2.7081707065    3.5099978171
H        2.1008004237    3.1203168184    2.4598948700
H        1.7357159335    1.4195649299    2.8142905910
H       -0.8267594759    4.0731412440    1.9102019188
H       -0.8436646096    3.6485967854    0.1836573450
H        0.5807242998    4.4363320676    0.8908179069
H        1.0030720668    2.0422279528    0.5380766682
H       -4.1197241369   -2.2384907257    1.6958867757
H       -6.9847223822   -1.6859319037    5.0604205245
28   

C       -0.7612547938    0.1680236090    0.7357892935
C       -1.7623835358   -0.8014376370    0.8827031767
C       -1.6852843766    1.4193949234    2.5991594783
C       -3.8344114143    0.3388104427    3.6042226102
C       -2.6803481368    0.4460673569    2.7301658000
C       -0.7057552171    1.2919872618    1.5878655573
C       -2.7102456350   -0.6413893583    1.8857979518
C       -4.5059452877   -0.8219427994    3.2684075845
C       -5.8724523689   -1.2385256555    3.6315096434
C        1.2957268560    2.3857145425    2.6163964592
C       -0.2291445286    3.7103267319    1.1021611653
C        0.3770331232    2.3337691846    1.3935875695
N       -3.8103089998   -1.4309791858    2.1974650458
O       -6.7562650720   -1.4747885331    2.8241463212
O       -6.1203361694   -1.2127639872    4.9611044420
H       -0.0267107909    0.0475606040   -0.0521296512
H       -1.8057000246   -1.6555525248    0.2188173958
H       -1.6842431314    2.2714860592    3.2674594615
H       -4.1596547887    1.0704304145    4.3336692985
H        0.7395417022    2.6802478551    3.5114703189
H        2.1022217665    3.1073039327    2.4530936408
H        1.7428940378    1.4017575256    2.7899503904
H       -0.8324983771    4.0620332550    1.9443181543
H       -0.8653321511    3.6594752001    0.2127643647
H        0.5645049986    4.4407151353    0.9161091156
H        0.9872228586    2.0518133874    0.5289025418
H       -4.1353710874   -2.2368933430    1.6692288009
H       -7.0562938273   -1.4537411018    5.0485005933
28   

C       -0.7823242972    0.2024293375    0.7044653654
C       -1.7885089902   -0.7629582496    0.8426685875
C       -1.6872644311    1.4307875379    2.5925385751
C       -3.8314042601    0.3422325033    3.6013901004
C       -2.6872490262    0.4614182496    2.7153212888
C       -0.7146676735    1.3127640232    1.5733607840
C       -2.7289221858   -0.6126531768    1.8541228622
C       -4.5104849702   -0.8114995654    3.2529426883
C       -5.8466392577   -1.2737979431    3.6447136256
C        1.2967103312    2.3806675858    2.6111232412
C       -0.2234034859    3.7329330796    1.1165345353
C        0.3748743676    2.3493716345    1.3898444903
N       -3.8282157102   -1.4034498639    2.1645746176
O       -6.6656075215   -1.7429806067    2.8685574269
O       -6.1596567172   -1.0292793632    4.9383336307
H       -0.0527549031    0.0889462764   -0.0890910158
H       -1.8404419351   -1.6074865322    0.1672094935
H       -1.6758440504    2.2717169051    3.2747452381
H       -4.1409144410    1.0559118540    4.3552006553
H        0.7447583733    2.6684198776    3.5109999990
H        2.1076861203    3.0986966506    2.4544277403
H        1.7376975809    1.3917796179    2.7720434454
H       -0.8231930271    4.0776064597    1.9641384468
H       -0.8615006136    3.6967349556    0.2277904183
H        0.5743014471    4.4607565637    0.9379839863
H        0.9814910340    2.0739563573    0.5205487375
H       -4.1611466974   -2.2059065533    1.6350301545
H       -7.0732438788   -1.3404975150    5.0401156875
28   

C       -0.8208956524    0.2291931639    0.6696433423
C       -1.8355607110   -0.7281520820    0.8008316777
C       -1.7042444468    1.4420209936    2.5780511482
C       -3.8450890314    0.3524985424    3.5947048168
C       -2.7125170612    0.4804534777    2.6944122945
C       -0.7378566179    1.3273799800    1.5525210546
C       -2.7688191020   -0.5820419800    1.8193888998
C       -4.5345213537   -0.7925578969    3.2365307664
C       -5.8312240936   -1.3082785185    3.6743937770
C        1.2855259714    2.3632417480    2.6010460020
C       -0.2199158510    3.7452415028    1.1187224004
C        0.3635174433    2.3531308224    1.3793294944
N       -3.8679950615   -1.3717100938    2.1322310526
O       -6.5694137211   -1.9889497970    2.9756171731
O       -6.2066760537   -0.8976866289    4.9083423825
H       -0.0956889992    0.1180026780   -0.1282232282
H       -1.8979241603   -1.5648240683    0.1165149534
H       -1.6796018779    2.2727036779    3.2723625501
H       -4.1325707505    1.0468336466    4.3749555922
H        0.7370064583    2.6494651563    3.5034943793
H        2.1046460470    3.0733431125    2.4506843175
H        1.7153280967    1.3680825657    2.7534133512
H       -0.8168781699    4.0877962870    1.9691886420
H       -0.8576241025    3.7239558214    0.2292243722
H        0.5855103435    4.4663118841    0.9476569339
H        0.9675334340    2.0789919131    0.5078217596
H       -4.2021940889   -2.1805032439    1.6124326834
H       -7.0860659912   -1.2845515953    5.0460445285
28   

C       -0.8917602758    0.2310227353    0.6199218168
C       -1.9199505322   -0.7123089197    0.7463232337
C       -1.7424592004    1.4323236701    2.5505145247
C       -3.8808115058    0.3506523709    3.5824137867
C       -2.7638304973    0.4841819155    2.6630065308
C       -0.7853238636    1.3160418689    1.5164425374
C       -2.8428977129   -0.5655909805    1.7740447142
C       -4.5873763992   -0.7815025797    3.2157750104
C       -5.8371037687   -1.3473621823    3.7156515751
C        1.2529882029    2.3146081835    2.5756599562
C       -0.2276607406    3.7255019652    1.0954218836
C        0.3336964418    2.3238295157    1.3515805741
N       -3.9440776457   -1.3498073573    2.0927511761
O       -6.4818163694   -2.2064048139    3.1287967693
O       -6.2693403756   -0.8108151260    4.8810149485
H       -0.1731309932    0.1180992157   -0.1836316450
H       -1.9985989042   -1.5406205664    0.0535526276
H       -1.6981163932    2.2518511387    3.2570044931
H       -4.1366241388    1.0226811505    4.3927162481
H        0.7077200202    2.6073123286    3.4779742187
H        2.0841937923    3.0114090622    2.4293994881
H        1.6659193883    1.3120005428    2.7258986003
H       -0.8229105184    4.0723716518    1.9453670427
H       -0.8622395122    3.7176961193    0.2034721344
H        0.5890787892    4.4352347577    0.9307923616
H        0.9359020455    2.0435970970    0.4807578241
H       -4.2771561473   -2.1693879178    1.5888907620
H       -7.1042368723   -1.2666167483    5.0738887293
28   

C       -0.9243107353    0.2957755883    0.5687541861
C       -1.9643158197   -0.6367015749    0.6773919502
C       -1.7570498829    1.4679639813    2.5249622655
C       -3.8931746733    0.3776671001    3.5531632264
C       -2.7894608613    0.5299550202    2.6205489896
C       -0.8026288685    1.3604809978    1.4874032140
C       -2.8834791279   -0.4997165592    1.7098002401
C       -4.6110752842   -0.7411827637    3.1681267914
C       -5.8023309394   -1.3745190379    3.7238753191
C        1.2434384184    2.3144823735    2.5756786437
C       -0.2071455159    3.7656628149    1.1045751964
C        0.3328176347    2.3532204465    1.3453671676
N       -3.9849848074   -1.2852535236    2.0236442514
O       -6.3227331952   -2.3789757096    3.2558742072
O       -6.3065894029   -0.7606115316    4.8201156701
H       -0.2068800800    0.1888192988   -0.2366836039
H       -2.0524279679   -1.4516834242   -0.0299030469
H       -1.6990252367    2.2699932921    3.2502965277
H       -4.1200528454    1.0162592896    4.3983852050
H        0.6968234522    2.6040293426    3.4781756202
H        2.0859917829    3.0004985432    2.4440052110
H        1.6404466185    1.3040155381    2.7159324367
H       -0.8047037752    4.1081981853    1.9546807996
H       -0.8345245293    3.7787721148    0.2076186405
H        0.6204702590    4.4663541082    0.9564601247
H        0.9375607357    2.0760074221    0.4753371459
H       -4.3057380097   -2.1159481570    1.5298772170
H       -7.0823050235   -1.2878479671    5.0697270752
