26   
Generated by ForceBalance from scan.xyz: Frame 1 of 24
C       -1.8194869219   -7.0149947571    0.1757413751
C       -1.1730261161   -6.5570647778   -0.9807045197
C       -2.0668540443   -6.1196677181    1.2169609307
C       -0.7827891043   -5.2242871370   -1.0924543670
C       -1.6800079299   -4.7762751677    1.1205076220
C       -1.0368220630   -4.3306493104   -0.0410175359
C        0.7770421415    1.5667622844   -0.5966120783
C        0.6460955942    0.5218225086   -1.4235259135
C       -0.4201817413   -0.7086129354    0.3111950499
C        0.0239274366    1.5708248133    0.7155058469
C       -0.9028311922   -2.0705219394    0.7694515631
N       -0.3250905553    0.2197018018    1.1842520029
N       -0.1583403525   -0.5724923865   -1.0490459565
O       -0.6128779315   -3.0387068404   -0.2401317065
H       -2.1232167977   -8.0544204451    0.2607295296
H       -0.9723399988   -7.2421532661   -1.8003498019
H       -2.5653692536   -6.4606488607    2.1206610845
H       -0.2807915293   -4.8566786862   -1.9830355297
H       -1.8802077389   -4.1030788741    1.9461196976
H        1.4222674936    2.3983044710   -0.8624958872
H        1.1430504193    0.4397496378   -2.3848483731
H        0.6136740095    2.0600062876    1.4994115464
H       -0.9053505774    2.1574905178    0.6301202380
H       -1.9848164325   -2.0260813798    0.9442892203
H       -0.4040522199   -2.3155452999    1.7118436469
H       -0.0540290140   -1.4427340702   -1.5564156199
26   
Generated by ForceBalance from scan.xyz: Frame 2 of 24
C       -1.7943547239   -7.0083958776    0.1616144923
C       -1.0231464942   -6.5699648431   -0.9238016512
C       -2.1532230069   -6.0959138093    1.1543657211
C       -0.6204283877   -5.2393365340   -1.0150998287
C       -1.7552121256   -4.7544821242    1.0773777174
C       -0.9881844736   -4.3276315780   -0.0139336326
C        0.7731585221    1.5449829096   -0.6461233548
C        0.4661330166    0.5533844665   -1.4914239265
C       -0.4310540479   -0.7025334325    0.3203247766
C        0.2090483205    1.5225398198    0.7570798018
C       -0.9478336690   -2.0518389221    0.7646941561
N       -0.1526255055    0.1697747298    1.2121005405
N       -0.3527084405   -0.5102359401   -1.0591447069
O       -0.5437675476   -3.0387340613   -0.1885503901
H       -2.1069892516   -8.0463953489    0.2302211527
H       -0.7335634828   -7.2692651311   -1.7039110667
H       -2.7479656511   -6.4216299311    2.0038936550
H       -0.0203124274   -4.8871200800   -1.8494103096
H       -2.0414227502   -4.0678499155    1.8657693614
H        1.4273341041    2.3516517081   -0.9619131004
H        0.8231390252    0.4929016150   -2.5145211278
H        0.9288485075    1.9379603545    1.4715978445
H       -0.6867929251    2.1605712540    0.8290198591
H       -2.0441871867   -2.0189800203    0.8210681545
H       -0.5449225188   -2.2637080100    1.7585682667
H       -0.3290860374   -1.3669760855   -1.6001417853
26   
Generated by ForceBalance from scan.xyz: Frame 3 of 24
C       -1.7452352341   -7.0118652202    0.1573901729
C       -0.8813380492   -6.5747826927   -0.8564737101
C       -2.2124024531   -6.0916564321    1.0965222299
C       -0.4947973281   -5.2383069990   -0.9299599697
C       -1.8327165585   -4.7439685890    1.0374639706
C       -0.9723420043   -4.3193202023    0.0170326677
C        0.7825333689    1.5000579837   -0.6663786417
C        0.2956606939    0.5833804255   -1.5114434332
C       -0.4969838928   -0.6914453223    0.3373450828
C        0.3812236247    1.4468857866    0.7905452410
C       -1.0447154101   -2.0324167927    0.7595884024
N       -0.0372352538    0.1037299423    1.2261229214
N       -0.5622862819   -0.4302866883   -1.0344921920
O       -0.5343307924   -3.0255916753   -0.1365230675
H       -2.0452689251   -8.0543923299    0.2127127813
H       -0.5062648583   -7.2796824672   -1.5939966804
H       -2.8795519839   -6.4166212867    1.8907687889
H        0.1771438899   -4.8862389262   -1.7076326732
H       -2.2038235361   -4.0519178830    1.7847267082
H        1.4663322264    2.2651408150   -1.0205050014
H        0.5300617787    0.5470795077   -2.5704528613
H        1.2091911201    1.7658666177    1.4336118843
H       -0.4451207208    2.1463831455    0.9961353051
H       -2.1424364640   -2.0184606913    0.7107327285
H       -0.7287632759   -2.2210861788    1.7886139631
H       -0.6430051688   -1.2619416372   -1.6089434594
26   
Generated by ForceBalance from scan.xyz: Frame 4 of 24
C       -1.6735650359   -7.0019885866    0.1641609291
C       -0.7284687466   -6.5701104938   -0.7770964457
C       -2.2455848302   -6.0711347470    1.0320207502
C       -0.3652213651   -5.2271186943   -0.8489996459
C       -1.8900069486   -4.7168278786    0.9721546016
C       -0.9473748091   -4.2960209517    0.0252449444
C        0.8277229151    1.4566921032   -0.7286662672
C        0.1599877917    0.6409159462   -1.5528707585
C       -0.5410271728   -0.6653495194    0.3144280515
C        0.5941355458    1.3515312186    0.7611326149
C       -1.1255750421   -1.9978763039    0.7092339828
N        0.0946760308    0.0302442118    1.1773590015
N       -0.7357911380   -0.3162138810   -1.0282875811
O       -0.5250017988   -2.9969799692   -0.1232760367
H       -1.9551910403   -8.0496545500    0.2191115472
H       -0.2715255871   -7.2837846791   -1.4578935519
H       -2.9766004104   -6.3923693535    1.7696236633
H        0.3686539194   -4.8775810666   -1.5696323764
H       -2.3437864763   -4.0159040226    1.6634677831
H        1.5368830460    2.1770376018   -1.1242579311
H        0.2656966866    0.6487723779   -2.6329302284
H        1.5185475392    1.5502742880    1.3150200218
H       -0.1281294418    2.1111891972    1.1006313634
H       -2.2149210869   -1.9948162533    0.5631305098
H       -0.8964452588   -2.1721980876    1.7634768385
H       -0.9413024554   -1.1047100851   -1.6320740771
26   
Generated by ForceBalance from scan.xyz: Frame 5 of 24
C       -1.6264927838   -7.0021848425    0.1741833298
C       -0.6008788589   -6.5707759497   -0.6791236792
C       -2.2922609246   -6.0657603354    0.9657042674
C       -0.2502052151   -5.2240722329   -0.7407506749
C       -1.9509371345   -4.7072914740    0.9156200668
C       -0.9267011760   -4.2873222926    0.0566681467
C        0.8379159013    1.4224490330   -0.7452797897
C        0.0133536863    0.7243896386   -1.5346970264
C       -0.5872315905   -0.6531783902    0.3193496569
C        0.7603663455    1.2320445020    0.7521866026
C       -1.1989955621   -1.9838178120    0.6798908854
N        0.1978542320   -0.0715445664    1.1417780714
N       -0.8996763342   -0.1922320068   -0.9682857991
O       -0.5085582215   -2.9858793175   -0.0745503711
H       -1.8976454228   -8.0530515912    0.2205351392
H       -0.0705858934   -7.2886407300   -1.2996942357
H       -3.0866954366   -6.3857407925    1.6351859342
H        0.5446689160   -4.8748365959   -1.3935796548
H       -2.4792139463   -4.0023911968    1.5474705760
H        1.5608299351    2.1082208741   -1.1758259440
H       -0.0008039680    0.7996987860   -2.6171978015
H        1.7528719303    1.3189220777    1.2082985308
H        0.1462413819    2.0196712419    1.2174030687
H       -2.2703469694   -1.9973625577    0.4350387242
H       -1.0657020037   -2.1447881160    1.7529871374
H       -1.2463578614   -0.9086377773   -1.5961916537
26   
Generated by ForceBalance from scan.xyz: Frame 6 of 24
C       -1.5838472719   -7.0197175401    0.2058304692
C       -0.4788739636   -6.5995826099   -0.5485343793
C       -2.3405747794   -6.0688054792    0.8910343076
C       -0.1396167791   -5.2504809064   -0.6169414817
C       -2.0122240863   -4.7073396080    0.8325176503
C       -0.9072834176   -4.2987605064    0.0735878193
C        0.8240988993    1.4155033680   -0.7767304880
C       -0.1393065755    0.8477866716   -1.5113894254
C       -0.6120369370   -0.6579037292    0.2830152475
C        0.9220735073    1.0874393460    0.6955000087
C       -1.2576292468   -1.9857147105    0.6026953542
N        0.3025193200   -0.2002377140    1.0466325072
N       -1.0373629666   -0.0649375904   -0.9156670894
O       -0.4922142353   -2.9972953481   -0.0570792379
H       -1.8459443907   -8.0726261130    0.2580412364
H        0.1225906943   -7.3283942579   -1.0859165068
H       -3.1977865326   -6.3795565178    1.4829864744
H        0.7152938797   -4.9092828065   -1.1936156471
H       -2.6141338773   -3.9912975778    1.3805411886
H        1.5332703705    2.0971629904   -1.2358214658
H       -0.2825388400    1.0299887687   -2.5715796961
H        1.9688171364    1.0558149558    1.0187657500
H        0.4444254934    1.8712013633    1.3049504132
H       -2.3004569926   -2.0084517793    0.2564317763
H       -1.2331808355   -2.1337300789    1.6862889169
H       -1.5215748444   -0.6866451418   -1.5523378931
26   
Generated by ForceBalance from scan.xyz: Frame 7 of 24
C       -1.5648904002   -7.0064357795    0.2694460909
C       -0.3882233399   -6.6137449634   -0.3849632921
C       -2.3933337633   -6.0291757312    0.8213912012
C       -0.0490437063   -5.2668315390   -0.4854736633
C       -2.0665823437   -4.6690850322    0.7285173303
C       -0.8885775875   -4.2882611055    0.0714716669
C        0.7827844846    1.5073510217   -0.8054035839
C       -0.2931713130    1.0682297181   -1.4680880886
C       -0.6055478934   -0.6370652945    0.1812277975
C        1.0748930514    0.9779618588    0.5800438957
C       -1.2885612035   -1.9599816691    0.4586344250
N        0.4134922772   -0.3025071965    0.8711556571
N       -1.1405694047    0.1015464839   -0.8846278527
O       -0.4656163705   -2.9925804446   -0.0810045101
H       -1.8268027145   -8.0578350444    0.3472297652
H        0.2696410608   -7.3627885297   -0.8184077806
H       -3.3074268898   -6.3177877980    1.3342035824
H        0.8605540987   -4.9465708616   -0.9852672690
H       -2.7277569953   -3.9327209542    1.1712554899
H        1.4452546461    2.2357848585   -1.2628626539
H       -0.5714905486    1.4027508690   -2.4622621579
H        2.1532288279    0.8393783401    0.7231688590
H        0.7646864724    1.7025389689    1.3497580259
H       -2.2893557058   -1.9894211191    0.0055192579
H       -1.3885039054   -2.0836163661    1.5421442137
H       -1.7326709105   -0.4156568916   -1.5225809898
26   
Generated by ForceBalance from scan.xyz: Frame 8 of 24
C       -1.5566065311   -7.0578688841    0.3593172368
C       -0.3122369412   -6.6950574915   -0.1766841039
C       -2.4446875601   -6.0571434659    0.7538186268
C        0.0355714420   -5.3538915856   -0.3150447544
C       -2.1101225510   -4.7023253225    0.6200123329
C       -0.8636578488   -4.3511822088    0.0834252885
C        0.7256702787    1.5819111985   -0.7112274085
C       -0.4426510941    1.2592756911   -1.2767307955
C       -0.5666735615   -0.6932380734    0.1053216750
C        1.2162868598    0.8159393181    0.4959135053
C       -1.2847408367   -2.0125235582    0.3249820581
N        0.5396193873   -0.4725627129    0.6974015640
N       -1.2182554353    0.1985847132   -0.7600984443
O       -0.4275470225   -3.0644347541   -0.0982791176
H       -1.8249140289   -8.1049828153    0.4672160037
H        0.3919727018   -7.4630419644   -0.4865604976
H       -3.4122770998   -6.3225968845    1.1723929135
H        0.9967237076   -5.0554875534   -0.7234171171
H       -2.8205780807   -3.9468198012    0.9361751694
H        1.3216377453    2.3924954887   -1.1198945810
H       -0.8576815248    1.7690553166   -2.1402893389
H        2.2935368497    0.6220390226    0.4195971330
H        1.0897837165    1.4113335061    1.4139800579
H       -2.2311732661   -2.0400235745   -0.2335125754
H       -1.5138363293   -2.1158032449    1.3924619166
H       -1.8893560397   -0.2140691783   -1.3958538829
26   
Generated by ForceBalance from scan.xyz: Frame 9 of 24
C       -1.5516966523   -7.0660621157    0.4294137949
C       -0.2581526493   -6.7249406935    0.0075982567
C       -2.4733763990   -6.0491932641    0.6784106503
C        0.1047244723   -5.3912577155   -0.1607032601
C       -2.1242635363   -4.7015407753    0.5120744756
C       -0.8282445196   -4.3721034278    0.0915700264
C        0.6770714832    1.6699302461   -0.6325353701
C       -0.5580273279    1.4241209995   -1.0826745780
C       -0.5215214651   -0.7108067233    0.0063232206
C        1.3242066404    0.7311454879    0.3593895859
C       -1.2577294888   -2.0284610306    0.1794928484
N        0.6505656582   -0.5678876575    0.4816547040
N       -1.2694721910    0.2864713660   -0.6413017110
O       -0.3733704898   -3.0953171587   -0.1104895064
H       -1.8315951213   -8.1074139180    0.5612629330
H        0.4731743304   -7.5048403961   -0.1889137019
H       -3.4799668552   -6.2963631835    1.0064143514
H        1.1034898453   -5.1100518565   -0.4814608612
H       -2.8636180782   -3.9341661049    0.7122980870
H        1.2165968093    2.5456663429   -0.9809884919
H       -1.0797567913    2.0586356609   -1.7920378176
H        2.3716453011    0.5443917860    0.0896842671
H        1.3577467253    1.1865840172    1.3615855234
H       -2.1355528820   -2.0701528702   -0.4828514272
H       -1.6166709094   -2.0920022234    1.2151889868
H       -2.0043580660   -0.0417972570   -1.2556708686
26   
Generated by ForceBalance from scan.xyz: Frame 10 of 24
C       -1.5748973966   -7.0755973719    0.4585038294
C       -0.2425778166   -6.7513520869    0.1626904362
C       -2.5135247722   -6.0508191287    0.5781284919
C        0.1414529333   -5.4241900036   -0.0094080315
C       -2.1423504410   -4.7097615559    0.4061255301
C       -0.8079895026   -4.3963080685    0.1122713353
C        0.6367186360    1.7064571595   -0.6026492100
C       -0.6469635027    1.4972254156   -0.9137639837
C       -0.4838993564   -0.7363033179   -0.0585344164
C        1.3931851851    0.6806006440    0.2090734299
C       -1.2273851514   -2.0536226825    0.0783048502
N        0.7396423083   -0.6331772195    0.2740817396
N       -1.3037588812    0.3194439245   -0.4943832101
O       -0.3268960119   -3.1281097917   -0.0811899285
H       -1.8719771421   -8.1117596782    0.5934468114
H        0.5012339884   -7.5384250642    0.0678194090
H       -3.5499096133   -6.2862503570    0.8071131961
H        1.1689558930   -5.1539303825   -0.2343885009
H       -2.8949928925   -3.9353320882    0.5034182988
H        1.1351367201    2.6128297841   -0.9333135601
H       -1.2501110810    2.1922111596   -1.4892737321
H        2.4026004410    0.5345138876   -0.1959342138
H        1.5409091781    1.0325827308    1.2421551800
H       -2.0310493517   -2.1125165636   -0.6723481022
H       -1.6993577737   -2.0817982939    1.0709529159
H       -2.1183925874    0.0530019661   -1.0336979714
26   
Generated by ForceBalance from scan.xyz: Frame 11 of 24
C       -1.5878612276   -7.0316091739    0.4402664532
C       -0.2296510809   -6.7186737085    0.2816610095
C       -2.5254972219   -5.9991874452    0.4582770347
C        0.1811816057   -5.3956073123    0.1438107714
C       -2.1278957755   -4.6617583068    0.3199552523
C       -0.7679867007   -4.3604286719    0.1625444892
C        0.6592287566    1.7534475902   -0.6262504724
C       -0.6557617688    1.5684432946   -0.7861022391
C       -0.4159674973   -0.7036380631   -0.0668658532
C        1.4818589516    0.6955950913    0.0718557277
C       -1.1641835526   -2.0193961809    0.0438645293
N        0.8406282403   -0.6261949724    0.1119008003
N       -1.2713513885    0.3860389237   -0.3191431403
O       -0.2583757609   -3.0971879423    0.0156643536
H       -1.9055171424   -8.0648459623    0.5480833247
H        0.5134625598   -7.5119369508    0.2665657540
H       -3.5817506168   -6.2256108533    0.5807892627
H        1.2281635179   -5.1339242957    0.0222986562
H       -2.8802716805   -3.8811600429    0.3378912252
H        1.1319213666    2.6582261009   -0.9960661417
H       -1.3136217774    2.2829046624   -1.2705830182
H        2.4588280638    0.5807724983   -0.4130820169
H        1.7005976831    0.9932589371    1.1095656175
H       -1.8871159806   -2.1018053755   -0.7837621920
H       -1.7379903195   -2.0106320203    0.9827943032
H       -2.1609213945    0.1578744281   -0.7467730425
26   
Generated by ForceBalance from scan.xyz: Frame 12 of 24
C       -1.5917048413   -7.0086870361    0.4049525140
C       -0.2242238204   -6.6962568977    0.3906453195
C       -2.5260771999   -5.9762286671    0.3256454079
C        0.1984292357   -5.3729779681    0.2982710553
C       -2.1161983708   -4.6386188465    0.2323899846
C       -0.7471947542   -4.3375012212    0.2184567118
C        0.6520003734    1.7760050881   -0.6717323783
C       -0.6752792507    1.6077120327   -0.6746589653
C       -0.3749379862   -0.6849862143   -0.0584789746
C        1.5298553161    0.7014340462   -0.0732838336
C       -1.1269960781   -1.9987831122    0.0301467745
N        0.8947553744   -0.6246043192   -0.0392184717
N       -1.2374246340    0.4265970334   -0.1413249413
O       -0.2244202403   -3.0740026235    0.1313575220
H       -1.9191173194   -8.0419720271    0.4771351409
H        0.5163305880   -7.4896943556    0.4518437929
H       -3.5893500589   -6.2027133380    0.3362928672
H        1.2523671478   -5.1113392700    0.2854520599
H       -2.8663487532   -3.8578917862    0.1739153334
H        1.0917581182    2.6711394696   -1.1004191052
H       -1.3791063993    2.3294147222   -1.0768311569
H        2.4686966910    0.6106766293   -0.6315618114
H        1.8192009758    0.9624595127    0.9570975104
H       -1.7627106801   -2.1096405977   -0.8631655871
H       -1.7921482569   -1.9588260788    0.9066197397
H       -2.1896976323    0.2273792234   -0.4246019250
26   
Generated by ForceBalance from scan.xyz: Frame 13 of 24
C       -1.5914708392   -7.0018699451    0.3775749440
C       -0.2308187364   -6.6857938301    0.5062106071
C       -2.5140823184   -5.9720302033    0.1945079124
C        0.1974255298   -5.3622114016    0.4515835754
C       -2.0989810203   -4.6339755512    0.1382295574
C       -0.7366787795   -4.3296813927    0.2670225872
C        0.6436368315    1.7850504746   -0.6991924312
C       -0.6766619214    1.6296421860   -0.5443037415
C       -0.3344291429   -0.6859239477   -0.0543905742
C        1.5667416889    0.6881346957   -0.2208594559
C       -1.0977016543   -1.9936112961    0.0095012407
N        0.9281609637   -0.6377655068   -0.1994402019
N       -1.1761448155    0.4399721408    0.0294362538
O       -0.2107846614   -3.0651157626    0.2314270730
H       -1.9226035904   -8.0356231255    0.4200260468
H        0.5006362566   -7.4772058366    0.6487969899
H       -3.5720974916   -6.2009716631    0.0937900720
H        1.2466156817   -5.0984608111    0.5467815864
H       -2.8401401828   -3.8551155279   -0.0024042945
H        1.0410090173    2.6787980155   -1.1698102440
H       -1.4178185808    2.3619978329   -0.8480414174
H        2.4573204121    0.6235515957   -0.8555237527
H        1.9348221867    0.9035510052    0.7949127663
H       -1.6429516543   -2.1315524520   -0.9374441941
H       -1.8433089040   -1.9287858859    0.8174747622
H       -2.1673852545    0.2688500841   -0.0903321861
26   
Generated by ForceBalance from scan.xyz: Frame 14 of 24
C       -1.5876681574   -7.0068554169    0.3724520661
C       -0.2507894742   -6.6757509608    0.6387451987
C       -2.4933482004   -5.9889144421    0.0742518941
C        0.1708163512   -5.3492971809    0.6061500810
C       -2.0845287519   -4.6482416445    0.0389272338
C       -0.7459014509   -4.3285273476    0.3053123003
C        0.6323651762    1.7969487654   -0.6763514903
C       -0.6636554387    1.6524768403   -0.3734813471
C       -0.3215721897   -0.6965031643   -0.0832990586
C        1.5783816884    0.6563981889   -0.3771452840
C       -1.0943734856   -1.9997553850   -0.0454197488
N        0.9143911484   -0.6575028776   -0.3845316159
N       -1.1161949935    0.4339286484    0.1759620366
O       -0.2299358733   -3.0594440329    0.3043478435
H       -1.9135134037   -8.0428450739    0.3977386991
H        0.4675806173   -7.4577310170    0.8714636964
H       -3.5329284398   -6.2293688672   -0.1341105548
H        1.2024679475   -5.0748289887    0.8056469789
H       -2.8123695453   -3.8787425295   -0.1930630528
H        0.9911659785    2.7108064823   -1.1393135565
H       -1.4196278423    2.4129555089   -0.5409157228
H        2.3958635257    0.6263582605   -1.1054986753
H        2.0541649038    0.7925374442    0.6071651271
H       -1.5406007367   -2.1736120591   -1.0360337904
H       -1.9143926472   -1.9160918292    0.6843684901
H       -2.1180775260    0.2906866100    0.1998242627
26   
Generated by ForceBalance from scan.xyz: Frame 15 of 24
C       -1.5799981972   -7.0111898687    0.4060404014
C       -0.2833223818   -6.6498565363    0.8007048626
C       -2.4595079187   -6.0193364151   -0.0277259696
C        0.1245891736   -5.3192764035    0.7608936333
C       -2.0645588926   -4.6748288623   -0.0721281004
C       -0.7658747605   -4.3251165690    0.3231387653
C        0.6208302606    1.8152477484   -0.6091715758
C       -0.6329228176    1.6638918179   -0.1644619779
C       -0.3346495133   -0.7096376179   -0.1649745440
C        1.5594722998    0.6309488816   -0.5568110780
C       -1.1070705850   -2.0143511238   -0.1542709179
N        0.8558783436   -0.6605430947   -0.6160439128
N       -1.0579794326    0.4007125680    0.2963493860
O       -0.2679511817   -3.0487135722    0.3266689474
H       -1.8951034311   -8.0503428611    0.4371141035
H        0.4145766138   -7.4113184052    1.1395647674
H       -3.4677179370   -6.2835937403   -0.3369702297
H        1.1260686954   -5.0222948203    1.0581025033
H       -2.7712064170   -3.9259595168   -0.4119891923
H        0.9504966623    2.7685269398   -1.0103104488
H       -1.3770152823    2.4538072166   -0.1518271256
H        2.2755571298    0.6645877744   -1.3850293769
H        2.1619705885    0.6506095058    0.3654080006
H       -1.4424635814   -2.2338760483   -1.1772029472
H       -1.9972477210   -1.9214655793    0.4854705941
H       -2.0508146048    0.2745441715    0.4435749895
26   
Generated by ForceBalance from scan.xyz: Frame 16 of 24
C       -1.5787038196   -6.9980395186    0.4624634651
C       -0.3338887262   -6.5952299333    0.9681189761
C       -2.4189083374   -6.0432613593   -0.1101984167
C        0.0620752350   -5.2620036138    0.9016466348
C       -2.0357308430   -4.6966566674   -0.1837756737
C       -0.7890135911   -4.3055645266    0.3239344940
C        0.6207673944    1.8328432329   -0.5139437140
C       -0.5692539132    1.6452693278    0.0703947282
C       -0.3546660091   -0.7121491925   -0.2743120480
C        1.5182025370    0.6371684894   -0.7426705290
C       -1.1166814871   -2.0219924450   -0.2950893838
N        0.7702481280   -0.6239510661   -0.8691057895
N       -0.9771046450    0.3396959357    0.4108486835
O       -0.3082006172   -3.0222794930    0.3100242987
H       -1.8838626110   -8.0393002019    0.5151164814
H        0.3337014240   -7.3270416656    1.4158501271
H       -3.3866204504   -6.3388471058   -0.5077988683
H        1.0244151008   -4.9352001920    1.2846349907
H       -2.7104663326   -3.9779587772   -0.6350941526
H        0.9275620623    2.8254033759   -0.8286001318
H       -1.2775921316    2.4393462750    0.2836062641
H        2.1187899040    0.7682519189   -1.6493285335
H        2.2382142201    0.5251712412    0.0838641879
H       -1.3329720446   -2.2855619406   -1.3376538111
H       -2.0692437812   -1.9297512846    0.2458518400
H       -1.9440996756    0.2103182289    0.6762577942
26   
Generated by ForceBalance from scan.xyz: Frame 17 of 24
C       -1.6029669502   -6.9793236023    0.5357326511
C       -0.4221210585   -6.5331488085    1.1470781707
C       -2.3815300629   -6.0716872395   -0.1825154545
C       -0.0294692215   -5.2013885369    1.0412603605
C       -2.0003173921   -4.7275791730   -0.2979448759
C       -0.8184265717   -4.2924040640    0.3172775109
C        0.6115230638    1.8280568322   -0.4074335763
C       -0.4905054328    1.5621815643    0.3048122968
C       -0.3727963116   -0.7251877592   -0.3848591818
C        1.4421083502    0.6781251170   -0.9324767038
C       -1.1133314051   -2.0436009274   -0.4446053183
N        0.6666379966   -0.5599976708   -1.1078440459
N       -0.8811810318    0.2239647194    0.5095131690
O       -0.3451200529   -3.0065407159    0.2734213002
H       -1.9067089866   -8.0189593894    0.6192052268
H        0.1967387215   -7.2283514727    1.7087249052
H       -3.2982371597   -6.4030607874   -0.6639084858
H        0.8834363842   -4.8402863808    1.5058833917
H       -2.6236150728   -4.0462177206   -0.8659852380
H        0.8974411276    2.8549954353   -0.6121827305
H       -1.1415343907    2.3205758682    0.7275890851
H        1.8966136600    0.9336418086   -1.8961440048
H        2.2808319449    0.4586637679   -0.2523479481
H       -1.2080050333   -2.3394321116   -1.4949536958
H       -2.1178259446   -1.9604158958   -0.0063276287
H       -1.8082406406    0.0606357783    0.8780259568
26   
Generated by ForceBalance from scan.xyz: Frame 18 of 24
C       -1.6427062061   -6.9541702214    0.5918639901
C       -0.5283644805   -6.4725030606    1.2940947757
C       -2.3464078657   -6.0861203517   -0.2432287678
C       -0.1282049448   -5.1450170310    1.1634503408
C       -1.9567689297   -4.7471387667   -0.3861018005
C       -0.8424938274   -4.2765975893    0.3220275042
C        0.5867567282    1.8302528956   -0.3296032868
C       -0.4057854545    1.4581793975    0.4881034031
C       -0.3567657464   -0.7361125866   -0.4636643053
C        1.3496634725    0.7689628523   -1.0911706894
C       -1.0745834247   -2.0621477928   -0.5618862982
N        0.5803805687   -0.4697463112   -1.2907229339
N       -0.7540546344    0.0970235922    0.5869287425
O       -0.3680811011   -2.9911492960    0.2615540297
H       -1.9526615689   -7.9901828818    0.6952446385
H        0.0323944114   -7.1363856961    1.9471845605
H       -3.2102743054   -6.4455053337   -0.7967770781
H        0.7337222994   -4.7571313271    1.6985980396
H       -2.5190923863   -4.0978318566   -1.0475721615
H        0.8353000365    2.8801776193   -0.4482471779
H       -0.9989812614    2.1478253962    1.0799293877
H        1.6570247568    1.1399509079   -2.0754440634
H        2.2811282735    0.5040414206   -0.5654551632
H       -1.0547070338   -2.3832164759   -1.6078209585
H       -2.1186753213   -1.9821693992   -0.2273032601
H       -1.6197623667   -0.1325991406    1.0556722686
26   
Generated by ForceBalance from scan.xyz: Frame 19 of 24
C       -1.9829613443   -6.9873369243    0.1750128624
C       -2.0721993723   -6.3468486484   -1.0693469590
C       -1.5622563000   -6.2586457435    1.2878719611
C       -1.7424752427   -4.9995943864   -1.1960146922
C       -1.2275376814   -4.9020492109    1.1766072950
C       -1.3176815704   -4.2726673865   -0.0721896067
C        0.6600761701    1.6967806765   -0.4057254194
C        1.4260847965    0.6309780974   -0.6695854384
C       -0.2380136332   -0.7935488920    0.2903181864
C       -0.7826555347    1.4847454217   -0.0027890803
C       -0.5224433814   -2.1858728521    0.8001491685
N       -1.0369359737    0.1596514150    0.5866708851
N        0.8948696449   -0.6636426167   -0.5167983382
O       -1.0167036584   -2.9534257546   -0.3002367467
H       -2.2408853998   -8.0380990336    0.2718895921
H       -2.4007052201   -6.9005301525   -1.9452733108
H       -1.4923835043   -6.7411474112    2.2595225533
H       -1.8076748922   -4.4875179158   -2.1517042054
H       -0.9117939477   -4.3579740262    2.0595868989
H        1.0698344103    2.6991774473   -0.4794976833
H        2.4647014152    0.6882876649   -0.9790515824
H       -1.1013900498    2.2435170341    0.7209154222
H       -1.4515261503    1.5987737675   -0.8710199920
H       -1.2742399911   -2.1073570402    1.5902432120
H        0.3861090132   -2.6545059918    1.2058472771
H        1.5337794493   -1.4463893445   -0.5475518035
26   
Generated by ForceBalance from scan.xyz: Frame 20 of 24
C       -1.9068531661   -7.0109588723    0.1828366226
C       -1.9074943646   -6.4008752017   -1.0796819551
C       -1.6053915651   -6.2438090757    1.3085636655
C       -1.6078403000   -5.0469192253   -1.2115827197
C       -1.3026417145   -4.8801822626    1.1925115034
C       -1.3026201611   -4.2820946747   -0.0745304582
C        0.7060927458    1.6666020932   -0.3972523378
C        1.3328736494    0.5533861863   -0.7987434945
C       -0.3334115196   -0.7680682151    0.2925335171
C       -0.6966392580    1.5592866168    0.1600041326
C       -0.6457312400   -2.1509271513    0.8101806076
N       -1.0059320277    0.2319300028    0.7196753489
N        0.7019032780   -0.6936700300   -0.6396274902
O       -1.0227802243   -2.9582498486   -0.3081820007
H       -2.1409994151   -8.0669120016    0.2835973316
H       -2.1433191948   -6.9838197970   -1.9663688249
H       -1.6054536852   -6.7016841899    2.2944869923
H       -1.6068189936   -4.5590068339   -2.1820730914
H       -1.0811545383   -4.3063976312    2.0852368860
H        1.1987583426    2.6310730923   -0.4688201456
H        2.3312433039    0.5347561078   -1.2239167084
H       -0.8627658945    2.3050922603    0.9456442574
H       -1.4438658264    1.7744850536   -0.6207497040
H       -1.4632256823   -2.0649449854    1.5309220735
H        0.2339100931   -2.5871683403    1.3056535466
H        1.2317563651   -1.5357256301   -0.8183972341
26   
Generated by ForceBalance from scan.xyz: Frame 21 of 24
C       -1.8387229662   -7.0089561861    0.1851155075
C       -1.7400142151   -6.4292245472   -1.0876603620
C       -1.6563806161   -6.2073079755    1.3124413793
C       -1.4601442528   -5.0718399324   -1.2289089113
C       -1.3750749066   -4.8399404261    1.1878914601
C       -1.2748653990   -4.2735075449   -0.0894298229
C        0.7946145645    1.6315315913   -0.4170604436
C        1.2587904993    0.4899958512   -0.9419089822
C       -0.3925636497   -0.7312141592    0.2758782849
C       -0.5396218480    1.6224180309    0.2972442085
C       -0.7425980900   -2.1054084306    0.7941895401
N       -0.9150410360    0.2983670956    0.8247105115
N        0.5328761007   -0.7006603206   -0.7644039660
O       -1.0047569320   -2.9483107191   -0.3305901542
H       -2.0571743386   -8.0676330793    0.2922938899
H       -1.8826607389   -7.0391059769   -1.9760507849
H       -1.7341142355   -6.6409131434    2.3061915197
H       -1.3845381842   -4.6081126180   -2.2083543284
H       -1.2466084002   -4.2391464895    2.0810389884
H        1.3679807915    2.5491626524   -0.5029377426
H        2.1943800338    0.4044259829   -1.4852366196
H       -0.5398699844    2.3323272489    1.1322932352
H       -1.3446669039    1.9541294689   -0.3781031843
H       -1.6197670288   -2.0147142398    1.4400186725
H        0.0968187161   -2.5117116266    1.3768416487
H        0.9330780552   -1.5806984253   -1.0599860824
26   
Generated by ForceBalance from scan.xyz: Frame 22 of 24
C       -1.7875449250   -7.0194337319    0.1974111891
C       -1.5848791565   -6.4696432981   -1.0762143958
C       -1.7200992473   -6.1886729228    1.3163957603
C       -1.3162230792   -5.1107746911   -1.2252694330
C       -1.4513910884   -4.8197472752    1.1824571033
C       -1.2465295370   -4.2822617571   -0.0946785549
C        0.8345919818    1.5951023904   -0.4350289133
C        1.1423922184    0.4550882194   -1.0673516971
C       -0.4560906606   -0.7081561340    0.2671410699
C       -0.4050119829    1.6438393487    0.4318140995
C       -0.8381465166   -2.0800757645    0.7760572161
N       -0.8242635845    0.3212975945    0.9290049746
N        0.3476243301   -0.6872703592   -0.8679818334
O       -0.9764436447   -2.9580238424   -0.3432039083
H       -1.9972650251   -8.0791044249    0.3116209368
H       -1.6374378787   -7.1030832433   -1.9579838989
H       -1.8789858110   -6.6000495028    2.3099167299
H       -1.1615677460   -4.6696654336   -2.2059055724
H       -1.4120688611   -4.1957180232    2.0679312847
H        1.4666754559    2.4709648865   -0.5428601996
H        1.9997580944    0.3328054320   -1.7214330273
H       -0.2486723799    2.2974982581    1.2977098219
H       -1.2509284849    2.0802063919   -0.1234897766
H       -1.7720035416   -1.9973580491    1.3382508868
H       -0.0485845394   -2.4499336092    1.4450568080
H        0.6452929703   -1.5804555490   -1.2371710206
26   
Generated by ForceBalance from scan.xyz: Frame 23 of 24
C       -1.7611609853   -7.0208579483    0.2117933680
C       -1.4340026709   -6.4995359935   -1.0477272527
C       -1.8082223099   -6.1640321239    1.3120530428
C       -1.1563889183   -5.1430429520   -1.2018357820
C       -1.5321506108   -4.7971152004    1.1736807504
C       -1.2031408807   -4.2890873731   -0.0893460542
C        0.8489463524    1.5745648988   -0.4654756147
C        1.0027787149    0.4594499714   -1.1915360079
C       -0.4845523661   -0.6896864649    0.2716615221
C       -0.2649225271    1.6400159073    0.5568741083
C       -0.9048717622   -2.0612872240    0.7629094431
N       -0.6932403383    0.3138362623    1.0344924936
N        0.1682546530   -0.6473634335   -0.9545370240
O       -0.9141645866   -2.9692719969   -0.3394895249
H       -1.9774149344   -8.0788107687    0.3295070665
H       -1.3957985045   -7.1536105503   -1.9150087786
H       -2.0632807343   -6.5533209723    2.2943388439
H       -0.9053773644   -4.7248622671   -2.1725967219
H       -1.5811445057   -4.1527070617    2.0439100091
H        1.5186440770    2.4172693651   -0.6059647420
H        1.7643528381    0.3282320727   -1.9535430402
H        0.0406034020    2.2326157180    1.4269392692
H       -1.1461231755    2.1536295524    0.1393696005
H       -1.8954940802   -1.9863502150    1.2205200641
H       -0.1892141368   -2.3982744191    1.5236810482
H        0.3781041951   -1.5375025165   -1.3867854455
26   
Generated by ForceBalance from scan.xyz: Frame 24 of 24
C       -1.7772624497   -7.0263711154    0.2096379348
C       -1.2879380077   -6.5342407600   -1.0082846481
C       -1.9419755908   -6.1473680967    1.2806381803
C       -0.9685048096   -5.1855015163   -1.1495674669
C       -1.6251424193   -4.7881832218    1.1539215564
C       -1.1356994205   -4.3082192436   -0.0673483780
C        0.8169745312    1.5693882089   -0.5203985886
C        0.8191040770    0.4897586370   -1.3130379047
C       -0.4649505070   -0.6950135469    0.3032205959
C       -0.1208790554    1.6089059725    0.6665621709
C       -0.9238265437   -2.0645990412    0.7706981242
N       -0.5123110865    0.2701604692    1.1391475378
N       -0.0084691921   -0.6059875866   -1.0059511575
O       -0.7940722322   -2.9980635861   -0.3016495805
H       -2.0257478607   -8.0782257635    0.3180106062
H       -1.1544905699   -7.2052921775   -1.8528706615
H       -2.3214548947   -6.5133439413    2.2311744250
H       -0.5898074918   -4.7918857040   -2.0886453574
H       -1.7644790944   -4.1277527677    2.0019638417
H        1.4847312344    2.4007706846   -0.7239247777
H        1.4510040643    0.3782489832   -2.1883012401
H        0.3378358309    2.1452783721    1.5052584019
H       -1.0378815019    2.1683567547    0.4191981970
H       -1.9674298830   -1.9984966952    1.0961774764
H       -0.3090963921   -2.3665565445    1.6257603446
H        0.1314382956   -1.4840672073   -1.4889241155
