24   

C       -4.2534866819   -1.0923284777    5.2354966334
C       -4.4072107076   -0.5769577525    3.9335684290
C       -2.0772038173   -1.5831364264    4.7813877254
C       -2.2078640676   -1.0693933644    3.4642388775
C       -1.1513787710   -0.5771747403    1.2116694518
C       -0.0365808365   -0.5511808993    0.4173173485
C       -1.0318912658   -1.0975458541    2.5615122465
C       -0.9538949920    0.9615107605   -1.2966362752
C        1.3946553309    0.0113500227   -1.4857979622
N       -3.0894708256   -1.6007625132    5.6753550233
N       -3.4001027146   -0.5586915108    3.0426386652
N        0.1311845658    0.1350126058   -0.7389896955
O        0.0352575478   -1.5613237308    2.9578161235
H       -5.1062369394   -1.0767190302    5.9038373032
H       -5.3716286615   -0.1805679480    3.6384552757
H       -1.1226703035   -1.9852389506    5.1009307615
H       -2.0825222748   -0.1364654125    0.8856938290
H        0.8383900310   -1.0822088210    0.7849704981
H       -1.3010481183    1.6871234322   -0.5541552104
H       -1.7912521789    0.3274425264   -1.6055172243
H       -0.6035285475    1.5170441521   -2.1722555038
H        1.2649110108   -0.6738840170   -2.3298095220
H        2.1931996134   -0.3740856637   -0.8437878520
H        1.7117626282    0.9887513984   -1.8626121573
24   

C       -4.2321304604   -1.0184016060    5.2397914585
C       -4.4227832654   -0.6467574854    3.8945271547
C       -2.0484019427   -1.4872749565    4.7980482564
C       -2.2158691286   -1.1168179525    3.4377708153
C       -1.2022955628   -0.8069492570    1.1327491529
C       -0.0831200804   -0.7225167118    0.3445910135
C       -1.0511098473   -1.1927808280    2.5234116666
C       -0.9490055089    0.9947631749   -1.1926187117
C        1.3969193665    0.0508675050   -1.4444757561
N       -3.0456721682   -1.4429193956    5.7078435039
N       -3.4306696025   -0.6903548990    2.9878308928
N        0.1175053245    0.0964684538   -0.7163210281
O        0.0386582896   -1.5742498327    2.9448380979
H       -5.0741991277   -0.9582426738    5.9190585329
H       -5.4038796407   -0.3125552638    3.5781490534
H       -1.0758799494   -1.8224403624    5.1397949095
H       -2.1488443763   -0.4115996553    0.7929373894
H        0.7925923888   -1.2637230206    0.6955714840
H       -1.3280941604    1.6081126524   -0.3689514920
H       -1.7709777867    0.4115789092   -1.6201915916
H       -0.5674758412    1.6691425496   -1.9657357134
H        1.2836683461   -0.5341234685   -2.3630248155
H        2.1796438776   -0.4090700496   -0.8327748696
H        1.7255018484    1.0625943732   -1.7018597371
24   

C       -4.1910170233   -0.9196954229    5.2363421526
C       -4.4144875679   -0.6940154102    3.8640376979
C       -1.9946491019   -1.3391590511    4.8070351480
C       -2.1950694616   -1.1149880480    3.4196197461
C       -1.2221540780   -0.9951239950    1.0789230888
C       -0.1104440819   -0.8616522626    0.2803462004
C       -1.0389014641   -1.2300990674    2.4984524936
C       -0.9410769191    1.0288671189   -1.0562649766
C        1.3948266805    0.0869947014   -1.4009067452
N       -2.9815014492   -1.2450869537    5.7244560949
N       -3.4328839869   -0.7875216230    2.9497747179
N        0.1101841978    0.0671360986   -0.6809429263
O        0.0735508690   -1.5155440598    2.9360017633
H       -5.0262732155   -0.8260887838    5.9202236417
H       -5.4128723926   -0.4341716641    3.5322717393
H       -1.0041240138   -1.5966846304    5.1640360058
H       -2.1866164046   -0.6548085524    0.7295935957
H        0.7678852743   -1.4147011764    0.6056383801
H       -1.3372748140    1.5289733251   -0.1667142496
H       -1.7552454037    0.5141548241   -1.5765416766
H       -0.5383959903    1.7985800862   -1.7221759241
H        1.2829667903   -0.3940972451   -2.3780587543
H        2.1680898818   -0.4446676158   -0.8372178813
H        1.7354051779    1.1169993445   -1.5453446263
24   

C       -4.1565174157   -0.8107502859    5.2137466939
C       -4.4050936338   -0.7370208923    3.8292907909
C       -1.9466885276   -1.1666163893    4.7953983294
C       -2.1723505648   -1.0950275891    3.3957702796
C       -1.2278250986   -1.1769450052    1.0417766891
C       -0.1363085179   -1.0005074660    0.2132370898
C       -1.0210837146   -1.2459163426    2.4735240764
C       -0.9492253895    1.0298549707   -0.9038771394
C        1.3673009395    0.0944771926   -1.3771480061
N       -2.9274537023   -1.0268310217    5.7136069509
N       -3.4297173742   -0.8768527860    2.9143485709
N        0.0891567358    0.0159717419   -0.6496483034
O        0.1106332509   -1.4231202484    2.9183076131
H       -4.9881930436   -0.6875023657    5.8972955752
H       -5.4182352149   -0.5593629249    3.4881604562
H       -0.9410064503   -1.3390961796    5.1611107864
H       -2.2125005262   -0.9076098707    0.6865581886
H        0.7473756020   -1.5660501756    0.5001517518
H       -1.3437893787    1.4193151824    0.0400976114
H       -1.7671956675    0.5945087578   -1.4867934265
H       -0.5342391104    1.8725377872   -1.4657690240
H        1.2361293007   -0.2660322632   -2.4026233269
H        2.1343434552   -0.5154582409   -0.8893480041
H        1.7283594992    1.1272870124   -1.4035317640
24   

C       -4.1297903005   -0.7227604787    5.1689835096
C       -4.3949976520   -0.8061029487    3.7882351072
C       -1.9052630192   -0.9787910893    4.7545426099
C       -2.1476231094   -1.0648387086    3.3586285574
C       -1.2183900738   -1.3388691455    1.0146078211
C       -0.1552188538   -1.1293624677    0.1424300428
C       -0.9971777362   -1.2357045441    2.4386459039
C       -0.9374288338    1.0226745926   -0.7295732292
C        1.3308246628    0.0748106835   -1.3800926444
N       -2.8848434587   -0.8085794184    5.6689699586
N       -3.4208425633   -0.9767203843    2.8773251799
N        0.0728800027   -0.0445770503   -0.6234618472
O        0.1485306517   -1.2881103222    2.8791933717
H       -4.9616155859   -0.5834428486    5.8492571417
H       -5.4203952726   -0.7279341297    3.4463765023
H       -0.8873096749   -1.0498054170    5.1200530676
H       -2.2231962058   -1.1606151515    0.6580859376
H        0.7282630009   -1.7216794219    0.3685996674
H       -1.2950407311    1.3128657345    0.2636175934
H       -1.7840468904    0.6826132817   -1.3344457934
H       -0.5084662905    1.9118261801   -1.2022939611
H        1.1547138471   -0.1552776688   -2.4359303502
H        2.0876417194   -0.6163616175   -0.9956330470
H        1.7313549465    1.0898336461   -1.2960145201
24   

C       -4.1395052316   -0.9098354928    5.3196753232
C       -4.4542213534   -1.3095137081    4.0062841402
C       -2.1238814198   -0.1347670979    4.5978000791
C       -2.4161992769   -0.5334040433    3.2668630734
C       -1.6524061687   -0.7380593230    0.8556710597
C       -0.5977991070   -0.9828354996   -0.0419927085
C       -1.3905066287   -0.3283084912    2.2149040421
C       -0.2485671487    1.3597664970   -0.6109750920
C        0.9706257489   -0.4926868918   -1.8446787840
N       -2.9749585198   -0.3150308515    5.6310851627
N       -3.6098840095   -1.1256947961    2.9760117744
N       -0.0331895475   -0.0787168568   -0.8505829540
O       -0.2998973888    0.1556793431    2.5055157968
H       -4.8638021013   -1.0914807243    6.1048560103
H       -5.4090268525   -1.7866518064    3.8190607021
H       -1.1700911076    0.3330506049    4.8130353532
H       -2.5796716711   -1.2676208163    0.6869932316
H       -0.4874056254   -2.0190437248   -0.3480381096
H       -1.3169205442    1.5780483173   -0.5153261507
H        0.1383326820    1.9494736572   -1.4478194805
H        0.2669437879    1.6728721951    0.3027226002
H        0.7436456161   -0.0477637383   -2.8185400287
H        0.9815267045   -1.5806863561   -1.9642061732
H        1.9677121960   -0.1719618949   -1.5257720654
24   

C       -4.0863892148   -0.8308549944    5.3035149772
C       -4.4016691866   -1.3390948437    4.0283424601
C       -2.1120461089   -0.0356856889    4.4952340591
C       -2.4053768941   -0.5424653431    3.2014549433
C       -1.6704110245   -0.8971669345    0.8017764989
C       -0.6427459250   -1.0746836508   -0.1276012808
C       -1.4059907922   -0.3667819504    2.1185802547
C       -0.2830106983    1.3211274193   -0.5257095413
C        0.9838825806   -0.4431902072   -1.8308165007
N       -2.9418906307   -0.1714178233    5.5522652579
N       -3.5779938736   -1.2012798753    2.9743719722
N       -0.0356841461   -0.1021281923   -0.8251401556
O       -0.3404360683    0.1935397848    2.3611015810
H       -4.7935273925   -0.9797073408    6.1109190020
H       -5.3401778022   -1.8633345256    3.8915552166
H       -1.1754152939    0.4839891845    4.6612742697
H       -2.5508085227   -1.5165085369    0.7008858415
H       -0.5773039139   -2.0691777059   -0.5591451232
H       -1.3431273035    1.4969594264   -0.3178397435
H       -0.0086677637    1.9437450454   -1.3828493484
H        0.3118799902    1.6376836150    0.3367068570
H        0.8045655234    0.1125037546   -2.7565109369
H        0.9610473686   -1.5112873206   -2.0690275339
H        1.9804196293   -0.1962227618   -1.4504124116
24   

C       -4.0703856428   -0.7897550972    5.2711226843
C       -4.3644160457   -1.3798531978    4.0265456079
C       -2.1193422425    0.0206856709    4.4225996539
C       -2.3916741242   -0.5674420910    3.1587218264
C       -1.6434146842   -1.0349694144    0.7869596276
C       -0.6717114441   -1.1362251631   -0.2011565663
C       -1.3992329374   -0.4120430837    2.0656800810
C       -0.3063985834    1.2885270200   -0.4852148996
C        0.9922380782   -0.4174767772   -1.8290492245
N       -2.9481043994   -0.0816114251    5.4842481404
N       -3.5414212376   -1.2765574642    2.9681211425
N       -0.0237050764   -0.1245103156   -0.8044243313
O       -0.3601640997    0.2054860606    2.2814049853
H       -4.7760203699   -0.9137959083    6.0840153864
H       -5.2859398636   -1.9395721536    3.9177757400
H       -1.2012051966    0.5799613240    4.5609070592
H       -2.4818573502   -1.7153178402    0.7310846546
H       -0.6436282625   -2.0894046357   -0.7209866996
H       -1.3510378559    1.4228879479   -0.1879887602
H       -0.1335800261    1.9183314521   -1.3632360126
H        0.3462112249    1.6343163742    0.3224532777
H        0.8390804692    0.2146036540   -2.7093543747
H        0.9374267299   -1.4618586319   -2.1521101688
H        1.9928734717   -0.2333090666   -1.4246664384
24   

C       -4.0643885530   -0.7849830146    5.2646534879
C       -4.3173483695   -1.4485457051    4.0484276046
C       -2.1369537980    0.0621134264    4.3981845190
C       -2.3688228308   -0.5980747820    3.1619400232
C       -1.5839466990   -1.1410987087    0.8205544347
C       -0.6917623998   -1.1569314940   -0.2359213362
C       -1.3770794820   -0.4434855110    2.0676102065
C       -0.3212536532    1.2827330816   -0.4374753522
C        0.9796612126   -0.3796690741   -1.8267963312
N       -2.9744203425   -0.0219835458    5.4546132611
N       -3.4852383649   -1.3644744650    2.9954761643
N       -0.0133507653   -0.1221979762   -0.7701481082
O       -0.3744174542    0.2367586418    2.2640299693
H       -4.7759437084   -0.8959910342    6.0742610542
H       -5.2144286242   -2.0495999231    3.9573228725
H       -1.2457255324    0.6672772856    4.5180322516
H       -2.3751073168   -1.8778105055    0.8005268014
H       -0.6996477145   -2.0718371778   -0.8211708872
H       -1.3525600160    1.3873928294   -0.0868134172
H       -0.2127970069    1.9162985383   -1.3229862263
H        0.3619472681    1.6491580658    0.3351107445
H        0.8488978260    0.3238399390   -2.6550317393
H        0.8747767440   -1.3921306357   -2.2293335271
H        1.9908764839   -0.2710588884   -1.4215110506
24   

C       -4.0803568222   -0.7796114847    5.2844747546
C       -4.2724936364   -1.5101067443    4.0958523871
C       -2.1776775528    0.1225982435    4.4189110587
C       -2.3492544388   -0.6030278396    3.2096373632
C       -1.4985354885   -1.1997773682    0.9056888591
C       -0.6867210470   -1.1501980025   -0.2079793935
C       -1.3497780076   -0.4371435998    2.1234417667
C       -0.2497335773    1.2842115489   -0.3635484424
C        0.9918296163   -0.3811867815   -1.7937829701
N       -3.0333031088    0.0441860974    5.4611552210
N       -3.4217362500   -1.4327339808    3.0574218447
N        0.0381600647   -0.1236503713   -0.7009454782
O       -0.3944272626    0.3105050201    2.3072300462
H       -4.8046915700   -0.8878440654    6.0830489243
H       -5.1373492031   -2.1579214151    4.0141216922
H       -1.3216697506    0.7784879804    4.5280464540
H       -2.2439860514   -1.9829697454    0.9121912290
H       -0.7388808071   -2.0377588319   -0.8318715601
H       -1.2720296265    1.3979764580    0.0099300965
H       -0.1559314020    1.9163246000   -1.2517513045
H        0.4548539024    1.6456564123    0.3920693078
H        0.8280622683    0.3193387429   -2.6187521200
H        0.8769305436   -1.3953310339   -2.1893554221
H        2.0171510812   -0.2688963217   -1.4269523439
24   

C       -4.1095596756   -0.8449939061    5.2761571357
C       -4.2333896351   -1.6261373346    4.1109551015
C       -2.2482658074    0.1418642354    4.4130660444
C       -2.3522306794   -0.6326165200    3.2263932095
C       -1.4375818495   -1.2360624583    0.9483084519
C       -0.7074214669   -1.1301505869   -0.2149245612
C       -1.3507522965   -0.4327926589    2.1469945195
C       -0.1226652459    1.2774684125   -0.3200818393
C        0.9586015636   -0.4134262338   -1.8363406390
N       -3.1175708524    0.0462553444    5.4424780263
N       -3.3686628285   -1.5321334838    3.0855170513
N        0.0783114649   -0.1372382502   -0.6875251050
O       -0.4527365397    0.3838370410    2.3215891965
H       -4.8424197204   -0.9690854593    6.0645819622
H       -5.0560879519   -2.3275279512    4.0365481284
H       -1.4375537692    0.8542368808    4.5135600632
H       -2.1425702544   -2.0555797472    0.9707089190
H       -0.8187712074   -1.9918035446   -0.8668600097
H       -1.1366343720    1.4446562601    0.0561365394
H        0.0088302137    1.9215902306   -1.1948324501
H        0.6049217907    1.5799128695    0.4396800198
H        0.7075094848    0.2418022894   -2.6765667246
H        0.8568983467   -1.4493625009   -2.1750777471
H        2.0031768991   -0.2498418700   -1.5527744187
24   

C       -4.1611185815   -1.0384144867    5.2441377170
C       -4.0862940971   -1.9025122737    4.1350927249
C       -2.6517524024    0.3524666177    4.2581057824
C       -2.5567550391   -0.5028450300    3.1272620393
C       -1.5270759145   -0.9974824839    0.8717003549
C       -0.7970772749   -0.9363281863   -0.3019619378
C       -1.6409912070   -0.1278209898    2.0157443199
C        0.3771969236    1.2555289829   -0.2985082927
C        0.6943085540   -0.4091397676   -2.1546134781
N       -3.4475947283    0.0978973089    5.3195776081
N       -3.2958657574   -1.6493280792    3.0774292642
N        0.0823792326   -0.0751386148   -0.8552301653
O       -0.9877373389    0.9032112495    2.1186673065
H       -4.8183909135   -1.3025645711    6.0640835683
H       -4.6863942424   -2.8048836716    4.1331146375
H       -2.0612704137    1.2608116839    4.2886895900
H       -2.1367271463   -1.8886463489    0.9241414831
H       -0.9811506314   -1.8191684535   -0.9074422020
H        0.9058826722    1.8693978563   -1.0338670770
H        1.0159553939    1.1666204027    0.5855126187
H       -0.5468031904    1.7858885817   -0.0541112206
H        0.5012345744    0.3888109116   -2.8789072437
H        0.2836802626   -1.3370237226   -2.5651102767
H        1.7754270177   -0.5353697444   -2.0388372280
24   

C       -4.0071925675   -0.9154339370    5.3367598269
C       -3.7829017109   -1.9202720870    4.3759254943
C       -2.9579243952    0.5962799183    3.9962463198
C       -2.7171073198   -0.3997292125    3.0119642525
C       -1.7574556139   -1.0296602556    0.7596176500
C       -1.0039566311   -0.9402337189   -0.3901528568
C       -1.9841780122   -0.0257730684    1.7746067114
C        0.7453562878    0.7198093022    0.1865139945
C        0.3726948535   -0.0397985561   -2.1824409213
N       -3.5994555720    0.3528046435    5.1597222419
N       -3.1444242104   -1.6793232930    3.2173017408
N       -0.0712110578   -0.0422867246   -0.7774563231
O       -1.6252787607    1.1381875988    1.6326191553
H       -4.5268939484   -1.1778128160    6.2506332989
H       -4.1359954181   -2.9247623778    4.5775243170
H       -2.6128017734    1.6090759961    3.8231479507
H       -2.2746427664   -1.9698635428    0.8924401518
H       -1.1832054910   -1.7591587844   -1.0808740696
H        1.7824671869    0.7822723060   -0.1568038171
H        0.7567564953    0.2293245729    1.1647416625
H        0.3579632763    1.7381554532    0.2913454601
H        0.1518620621    0.9293780477   -2.6409555239
H       -0.1388174017   -0.8145619874   -2.7623880135
H        1.4491271033   -0.2292633391   -2.2436666328
24   

C       -3.9778115558   -0.9011337957    5.3083368456
C       -3.6835409247   -1.9396015398    4.4036890748
C       -2.9951648232    0.5969880044    3.9036002089
C       -2.6862148411   -0.4327321888    2.9748610378
C       -1.6850483990   -1.1161754510    0.7567956178
C       -1.0075441760   -0.9746170104   -0.4359365312
C       -1.9688567400   -0.0803336883    1.7229003558
C        0.8101660251    0.5708106128    0.2341430516
C        0.3965138937   -0.0232579117   -2.1818587821
N       -3.6384139688    0.3773708369    5.0708562390
N       -3.0431080753   -1.7224342281    3.2414328025
N       -0.0246743276   -0.1127598080   -0.7730684033
O       -1.6759866483    1.0935563668    1.5188080893
H       -4.4963421133   -1.1452198128    6.2279261295
H       -3.9832801556   -2.9507511037    4.6527836986
H       -2.7067202691    1.6177226138    3.6805382016
H       -2.1602907754   -2.0737159191    0.9192769897
H       -1.2272216213   -1.7516353151   -1.1623714321
H        1.8552123687    0.5949294533   -0.0892239428
H        0.7786912847    0.0449517524    1.1933122730
H        0.4693643294    1.6014929511    0.3740892395
H        0.0951333448    0.9427326780   -2.5995835769
H       -0.0600622357   -0.8157930305   -2.7831831496
H        1.4831669627   -0.1256468135   -2.2644920861
24   

C       -3.9594289948   -0.8557568424    5.3282665876
C       -3.5979431040   -1.9146437195    4.4729258986
C       -3.0232055063    0.6301635747    3.8795387943
C       -2.6487686772   -0.4201075408    2.9993906347
C       -1.5889240426   -1.1393006235    0.8193245903
C       -1.0172925371   -0.9482983975   -0.4253713325
C       -1.9398225760   -0.0829904797    1.7389328737
C        0.8515542450    0.5268160973    0.2534598212
C        0.3847303114    0.0027481447   -2.1741569629
N       -3.6764701050    0.4270172188    5.0441972509
N       -2.9462522024   -1.7139434379    3.3139528121
N        0.0032157822   -0.1335389960   -0.7582619303
O       -1.7102471334    1.0949884842    1.4814316920
H       -4.4846790286   -1.0870919017    6.2473394254
H       -3.8547390219   -2.9281218401    4.7579435168
H       -2.7818827092    1.6539091709    3.6176519111
H       -2.0061881518   -2.1166688085    1.0186321389
H       -1.2946434802   -1.6895437724   -1.1691877924
H        1.8915568918    0.5605695204   -0.0850009320
H        0.8350792033   -0.0220301890    1.2000371139
H        0.5106341617    1.5526639898    0.4247171405
H        0.0570704888    0.9751401367   -2.5558586225
H       -0.0745046159   -0.7813843976   -2.7843673435
H        1.4702786992   -0.0787648776   -2.2879250755
24   

C       -3.9707277431   -0.8505267739    5.3386805953
C       -3.5332877117   -1.9131927810    4.5244189139
C       -3.0766864077    0.6402189731    3.8683746637
C       -2.6277316946   -0.4138405483    3.0288401148
C       -1.4873712244   -1.1348547852    0.8876276936
C       -1.0306995169   -0.9030799689   -0.4034627538
C       -1.9192635627   -0.0760583985    1.7687748210
C        0.8846509149    0.5201999623    0.2307987885
C        0.3629804958   -0.0056151960   -2.1889489649
N       -3.7467234757    0.4366504837    5.0233768530
N       -2.8637925175   -1.7119296179    3.3757202377
N        0.0270637522   -0.1544699043   -0.7631780163
O       -1.7523497361    1.1034336477    1.4713021105
H       -4.5075132909   -1.0825596209    6.2508884896
H       -3.7455180077   -2.9301147098    4.8328873127
H       -2.8838186619    1.6671277141    3.5800129320
H       -1.8350300852   -2.1317757110    1.1205755085
H       -1.3837081361   -1.6089842317   -1.1495503918
H        1.9095863054    0.6009969979   -0.1439061236
H        0.9231407730   -0.0467801787    1.1660585507
H        0.5104558051    1.5282606023    0.4347327177
H        0.0770954827    0.9924191449   -2.5366784354
H       -0.1629529840   -0.7477331339   -2.7978412118
H        1.4373626939   -0.1452847045   -2.3442425811
24   

C       -4.0151154489   -0.8742195517    5.3464161213
C       -3.4929307255   -1.9224814497    4.5639853418
C       -3.1631432538    0.6425981135    3.8776543298
C       -2.6304662534   -0.3968502178    3.0698894477
C       -1.3889933995   -1.0804451659    0.9687662336
C       -1.0378564453   -0.8233023927   -0.3585044527
C       -1.9153736038   -0.0392283091    1.8196601056
C        0.9334997451    0.5336410793    0.1897306654
C        0.3413139746   -0.0337103556   -2.2078881940
N       -3.8547499484    0.4187648350    5.0160763790
N       -2.8010508336   -1.7007334388    3.4324578177
N        0.0577879911   -0.1661547357   -0.7693851303
O       -1.8121159688    1.1408131063    1.4955971211
H       -4.5664181728   -1.1227083062    6.2455387977
H       -3.6571466887   -2.9451118362    4.8827375530
H       -3.0214618386    1.6739946828    3.5759117447
H       -1.6554855459   -2.0952207288    1.2296670888
H       -1.4867323766   -1.4868784052   -1.0917909385
H        1.9241454283    0.6945025324   -0.2465622577
H        1.0676189275   -0.0599190188    1.0994969406
H        0.5087205783    1.5074371007    0.4526842010
H        0.1338187572    0.9899343864   -2.5363458920
H       -0.2790573176   -0.7167960369   -2.7966421061
H        1.3902343349   -0.2708747083   -2.4113046499
24   

C       -4.0763916174   -0.9511301360    5.3573642089
C       -3.4490090998   -1.9579446125    4.5980891491
C       -3.3017108860    0.6225645848    3.9054891887
C       -2.6649020635   -0.3748668451    3.1210419166
C       -1.3085930983   -0.9621513571    1.0583168571
C       -1.0323479562   -0.7064833314   -0.2967186934
C       -1.9521130029    0.0311661123    1.8850022836
C        1.0141662534    0.5436756288    0.1305665213
C        0.3155678915   -0.0752019155   -2.2292659242
N       -4.0076668392    0.3493347257    5.0241847267
N       -2.7415354798   -1.6864665152    3.4872639033
N        0.0921035585   -0.1630569018   -0.7768243905
O       -1.9406120909    1.2099652769    1.5408652209
H       -4.6349658263   -1.2391247727    6.2400665049
H       -3.5431209774   -2.9893093750    4.9171456446
H       -3.2329926566    1.6603097249    3.6001073950
H       -1.4570456303   -1.9930954675    1.3478428823
H       -1.6013714508   -1.3056362469   -1.0015631121
H        1.9520418600    0.7776169544   -0.3826733974
H        1.2551490591   -0.0805802328    0.9968258404
H        0.5631922443    1.4800229503    0.4748142219
H        0.2029853120    0.9613753755   -2.5633042056
H       -0.4036624328   -0.6925734922   -2.7767224416
H        1.3216825918   -0.4265632671   -2.4785802187
24   

C       -3.8459199249   -0.9261330455    5.3569009309
C       -2.9460116406   -1.7533647439    4.6571812510
C       -4.0507549001    0.4018242110    3.5183212836
C       -3.1456957177   -0.4164592854    2.7930509606
C       -1.8982447211   -0.8740691575    0.6325614903
C       -1.3021433039   -0.3520241987   -0.5107160412
C       -2.8067528553   -0.0504125972    1.3965498142
C        0.9574736988   -0.1695883776    0.4190362050
C        0.4000383866    0.7270153391   -1.8943878483
N       -4.4092009790    0.1589668919    4.7978758532
N       -2.5894973734   -1.5132237617    3.3831764237
N       -0.0270937566    0.0595036147   -0.6529545642
O       -3.2926194139    0.9538368913    0.8818678512
H       -4.0896156391   -1.1760829795    6.3826952828
H       -2.5234940676   -2.6133765478    5.1634165867
H       -4.4829293104    1.2701860107    3.0345407037
H       -1.3955311506   -1.6726458143    1.1598881340
H       -2.0036499038    0.0842470739   -1.2178854945
H        1.2272471472   -1.2295300987    0.4639737106
H        0.5510777596    0.1422458087    1.3865728531
H        1.8664518327    0.4121397600    0.2362353594
H        1.0314315294    1.5909678083   -1.6648352867
H       -0.4628795509    1.0854265340   -2.4646640918
H        0.9632602765    0.0269031156   -2.5199855073
24   

C       -3.9506865379   -0.9757585386    5.3483396654
C       -2.9333189083   -1.7094531596    4.7076209905
C       -4.2201537874    0.2848907993    3.4712460118
C       -3.1971491091   -0.4395181633    2.8051947445
C       -1.7983620649   -0.7910668878    0.7179543541
C       -1.2554028616   -0.2463725925   -0.4298881545
C       -2.8383411926   -0.0645586309    1.4161157633
C        1.0814750222   -0.2560596424    0.3249874155
C        0.4147099123    0.7616253592   -1.9076750415
N       -4.6063512951    0.0277596328    4.7398495925
N       -2.5487429383   -1.4549814576    3.4445793986
N        0.0357580774    0.0866061450   -0.6547459977
O       -3.4150063345    0.8647912853    0.8559288771
H       -4.2107124565   -1.2317892771    6.3686090184
H       -2.4407685444   -2.5066936810    5.2518619703
H       -4.7243234481    1.0898686615    2.9490395699
H       -1.2344976821   -1.5260530636    1.2748669382
H       -1.9758924002    0.2299002296   -1.0910411922
H        1.2637882011   -1.3354755178    0.3204829393
H        0.7821044310    0.0570206613    1.3303735283
H        2.0186338051    0.2541741755    0.0811789476
H        1.1364089341    1.5597069928   -1.7077421584
H       -0.4583261532    1.2133464310   -2.3894247455
H        0.8601642707    0.0403655296   -2.6005852898
24   

C       -4.0268246642   -1.0458074070    5.3525695463
C       -2.9123819933   -1.6761805865    4.7654185159
C       -4.3376434738    0.1690520513    3.4521069483
C       -3.2172469134   -0.4515694342    2.8398303251
C       -1.6902465153   -0.6684362830    0.8245126522
C       -1.2055934150   -0.1196954082   -0.3397044608
C       -2.8377482657   -0.0525357718    1.4631490945
C        1.1808649365   -0.3082654501    0.2266668994
C        0.4148153772    0.7711610922   -1.9436188358
N       -4.7525957649   -0.1178921321    4.7050462115
N       -2.4984276699   -1.3914573777    3.5181207260
N        0.0877957243    0.1209706189   -0.6632451466
O       -3.4875789490    0.8033048555    0.8667182158
H       -4.3057529868   -1.3207585686    6.3628713584
H       -2.3673866572   -2.4164252193    5.3393320794
H       -4.8968300466    0.9154627131    2.8997554760
H       -1.0792690208   -1.3488993065    1.4004517435
H       -1.9440435542    0.3754478374   -0.9663354816
H        1.2618044145   -1.4000224423    0.2256414747
H        1.0021683173    0.0417936968    1.2483823837
H        2.1358687749    0.1086510557   -0.1082956093
H        1.2184157101    1.5013575102   -1.8064894030
H       -0.4537051883    1.3018855772   -2.3465489080
H        0.7336118080    0.0198636722   -2.6734875702
24   

C       -4.1019887693   -1.1252863205    5.3346206722
C       -2.9029175296   -1.6437033991    4.8076957599
C       -4.4357138544    0.0490711074    3.4128308994
C       -3.2305410517   -0.4593688963    2.8608585223
C       -1.5919901629   -0.5338276721    0.9257402065
C       -1.1515387412   -0.0024913018   -0.2593363654
C       -2.8262820690   -0.0314188366    1.4999832321
C        1.2482088033   -0.3905030270    0.1313055502
C        0.4143557938    0.7300140510   -1.9916629338
N       -4.8823009768   -0.2746895886    4.6457171153
N       -2.4571686170   -1.3219934142    3.5804767796
N        0.1306334915    0.1237472106   -0.6797407314
O       -3.5314387316    0.7501996436    0.8654954937
H       -4.4028666762   -1.4247316907    6.3315708490
H       -2.3173481451   -2.3258090078    5.4128225667
H       -5.0379491294    0.7350119244    2.8282645187
H       -0.9497875403   -1.1672387333    1.5208061571
H       -1.8987065327    0.5062574314   -0.8642133716
H        1.2195934075   -1.4844517674    0.1631630835
H        1.1939828761    0.0046754630    1.1507290741
H        2.2076468447   -0.0840549665   -0.2972197629
H        1.2818832891    1.3939459447   -1.9253854509
H       -0.4357825851    1.3250598338   -2.3403245232
H        0.6174786069   -0.0531356616   -2.7293552381
24   

C       -4.2876172233   -1.1537655539    5.2364046339
C       -4.3654766908   -0.4344052842    4.0278027286
C       -2.1669710802   -1.7966564103    4.7140637921
C       -2.2217158271   -1.0788083006    3.4903044711
C       -1.0817599591   -0.3640804278    1.3403986046
C       -0.0069655727   -0.4473399251    0.4962869455
C       -1.0405879459   -1.0945406155    2.5940329725
C       -1.1367627027    0.4857725052   -1.4835231038
C        1.3048950222   -0.2126312139   -1.5555535164
N       -3.1902213043   -1.8425766309    5.5944142716
N       -3.3474446368   -0.3880122450    3.1504090285
N        0.0416192895   -0.0866183743   -0.8087986407
O       -0.0342096122   -1.7227778736    2.9156953887
H       -5.1450285945   -1.1496501671    5.8989252414
H       -5.2785081536    0.1012055291    3.7958259973
H       -1.2648783724   -2.3407832192    4.9691809088
H       -1.9844444776    0.1534171568    1.0490733690
H        0.8897721026   -0.9187720819    0.8916978837
H       -1.3798935275    1.4633606902   -1.0547749829
H       -1.9979425102   -0.1819397672   -1.3794257202
H       -0.9413883413    0.6193373238   -2.5522010557
H        1.1161540741   -0.6026744372   -2.5605949943
H        1.9899831702   -0.9028358879   -1.0528739866
H        1.7914919070    0.7649007047   -1.6354557537
24   

C       -4.2752461040   -1.1565190045    5.2388801266
C       -4.3921389013   -0.5144207267    3.9905678927
C       -2.1137226451   -1.6876025716    4.7603119893
C       -2.2076025053   -1.0471801596    3.4965790509
C       -1.1081744482   -0.3966032440    1.3068941756
C       -0.0100437265   -0.4225271490    0.4893267757
C       -1.0238906758   -1.0417877648    2.6034543446
C       -1.0194911470    0.8580533683   -1.3553272208
C        1.3436782868   -0.0572063511   -1.5146177017
N       -3.1373215595   -1.7495688856    5.6392706922
N       -3.3736491902   -0.4517234479    3.1147272034
N        0.1003436170    0.1199367658   -0.7447931056
O        0.0175958834   -1.5871749288    2.9624760293
H       -5.1355490184   -1.1711831227    5.8974910026
H       -5.3368505619   -0.0544990834    3.7254094801
H       -1.1799704913   -2.1565854799    5.0485622157
H       -2.0258357259    0.0857367165    1.0025755848
H        0.8708504237   -0.9388040951    0.8636103355
H       -1.3293209555    1.6845844484   -0.7078707543
H       -1.8686145530    0.1874027666   -1.5221931206
H       -0.7216708795    1.2788316847   -2.3209404221
H        1.1848543459   -0.7785460482   -2.3227121496
H        2.1525895480   -0.4258518996   -0.8756836519
H        1.6643218417    0.8978130109   -1.9425540018
