29

C      1.76665   -1.37142   -0.14656
C      0.52387   -1.53746   -0.77398
C      2.60773   -2.47083    0.07011
C      0.10437   -2.80517   -1.19658
C      2.18879   -3.73532   -0.34667
C      0.94707   -3.89673   -0.97688
C      0.03313   -5.20048   -3.72814
C      2.90953   -5.06441   -0.23558
C      1.78878   -6.09408   -0.52891
C     -1.83204   -4.73908   -4.80688
C     -0.65448   -4.73047   -5.81552
C      0.74205   -5.34606   -1.38852
N     -1.19874   -4.92543   -3.49427
N      0.99327   -5.56547   -2.82458
O      0.47765   -5.19028   -5.02907
H      2.07689   -0.38191    0.18047
H     -0.12030   -0.67512   -0.92752
H      3.56805   -2.33684    0.56372
H     -0.85326   -2.94898   -1.68803
H      3.71969   -5.12629   -0.97478
H      3.36900   -5.21709    0.74604
H      2.14293   -7.00423   -1.01973
H      1.31543   -6.38515    0.41360
H     -2.39909   -3.80272   -4.83235
H     -2.53646   -5.55665   -5.00626
H     -0.77837   -5.41473   -6.65749
H     -0.41834   -3.72965   -6.19063
H     -0.27519   -5.69422   -1.20602
H      1.93493   -5.35765   -3.14074
