29   

C        1.1737982355   -1.0437481955    0.1871713599
C        1.5359115178   -2.1914457943    0.8948166485
C        1.0123727192    0.1668158539    0.8650483243
C        1.7281447672   -2.1279505010    2.2791407612
C        1.1999699956    0.2265163576    2.2513327033
C        1.9414818547   -0.1054447943    6.4290094235
C        2.8856781601   -1.1619396912    6.1909931595
C        1.5456122646   -0.9251810325    2.9872827681
C        1.2015942392    0.0118984549    5.2870464126
C       -0.0428085619    0.8342774760    5.2069153462
C       -2.2483061942    1.4706733797    4.3055585463
C       -1.4021904071   -0.8423472334    3.9394474388
N        2.7132782604   -1.6383656119    4.9856192415
N        1.7321341875   -0.8968843487    4.3879068174
N       -1.1475099293    0.5180655158    4.4048408286
O       -0.1681579353    1.7764317741    5.9949470229
H        1.0273431246   -1.0912696962   -0.8863073295
H        1.6710744477   -3.1326095095    0.3731766289
H        0.7473597881    1.0634753850    0.3157491993
H        2.0128798625   -3.0249845436    2.8186516439
H        1.0893108235    1.1820927598    2.7500059053
H        1.7921660026    0.4341079025    7.3573237467
H        3.6072038117   -1.5313211317    6.9105769438
H       -2.8542481961    1.2625806679    3.4180037468
H       -1.8642407734    2.4917499729    4.2092831435
H       -2.8834989602    1.4111955413    5.1949701598
H       -2.4547158888   -1.0996494065    4.0952284395
H       -0.8153876295   -1.5753557429    4.5011140329
H       -1.1801721116   -0.9364371233    2.8722925553
29   

C        1.1639812153   -1.0078247062    0.1712672250
C        1.5425467678   -2.1529864320    0.8740753769
C        0.9909027376    0.1983544809    0.8535095654
C        1.7384985100   -2.0916233027    2.2580394998
C        1.1827906175    0.2561207157    2.2391271642
C        1.8416438523   -0.1680506286    6.4564801243
C        2.7891389790   -1.2227015013    6.2199875678
C        1.5438129940   -0.8935881034    2.9715873563
C        1.1649125257    0.0005662406    5.2839304068
C       -0.0354678080    0.8745839356    5.1241344206
C       -2.2579322145    1.4497821093    4.2111485597
C       -1.4207529490   -0.8932233813    4.0188946993
N        2.6758012456   -1.6443276452    4.9867836031
N        1.7287160745   -0.8712500517    4.3734629259
N       -1.1704998841    0.4950789320    4.3962611597
O       -0.0809562703    1.9386467130    5.7490483772
H        1.0139792258   -1.0535300776   -0.9017873202
H        1.6868928013   -3.0908097467    0.3489426696
H        0.7139214535    1.0938475051    0.3081849696
H        2.0343122481   -2.9879789803    2.7926101738
H        1.0657589436    1.2113853836    2.7366748210
H        1.6595977620    0.3468741823    7.3926212423
H        3.4730405182   -1.6274144105    6.9570980964
H       -2.8671911000    1.1699726195    3.3458441463
H       -1.8622180743    2.4531811927    4.0217608413
H       -2.8932252355    1.4787555024    5.1018652820
H       -2.4748406274   -1.1408425903    4.1795277962
H       -0.8382295737   -1.5873154532    4.6324346970
H       -1.1841981458   -1.0557147545    2.9629581764
29   

C        1.1454389716   -0.9761084061    0.1833819787
C        1.5224087698   -2.1164207760    0.8945811701
C        0.9904971412    0.2385448907    0.8541971635
C        1.7331761586   -2.0420004770    2.2758402169
C        1.1983811556    0.3098660470    2.2366716783
C        1.7945358340   -0.1589846039    6.4883447597
C        2.7295524234   -1.2269365587    6.2587793220
C        1.5558639313   -0.8350581256    2.9794748475
C        1.1735022961    0.0527941478    5.2934849039
C        0.0269390464    0.9823926843    5.0549213552
C       -2.2091835665    1.5285840463    4.1407101376
C       -1.4301033129   -0.8460134553    4.1711790291
N        2.6590750581   -1.6105027653    5.0094422081
N        1.7509629454   -0.8029417044    4.3808963546
N       -1.1522626628    0.5645668151    4.4265717344
O        0.0913661450    2.1411820182    5.4759504359
H        0.9830689961   -1.0318071951   -0.8873776989
H        1.6534530356   -3.0608743216    0.3779834651
H        0.7158566968    1.1308881163    0.3025123248
H        2.0261612977   -2.9359803019    2.8158027945
H        1.0991386900    1.2745790158    2.7194936841
H        1.5941922402    0.3433751601    7.4272623963
H        3.3766930426   -1.6651709862    7.0097818641
H       -2.7899720036    1.2059490697    3.2707525989
H       -1.7892486465    2.5115827213    3.9033269756
H       -2.8774650223    1.6249428748    5.0018852953
H       -2.4922347219   -1.0552735208    4.3331909679
H       -0.8722255904   -1.4944529729    4.8540484308
H       -1.1773406570   -1.1069132004    3.1388322298
29   

C        1.1773523488   -0.9942785808    0.1561688793
C        1.5429845661   -2.1489173105    0.8496019890
C        1.0553292218    0.2153020540    0.8422299543
C        1.7733619398   -2.0939877711    2.2287060793
C        1.2841490352    0.2676052486    2.2221335062
C        1.8058558898   -0.3615981572    6.4940796083
C        2.7304947765   -1.4334922670    6.2402748377
C        1.6279853375   -0.8922532290    2.9491126785
C        1.2447127771   -0.0707515946    5.2871170736
C        0.1549721515    0.9173344362    5.0037230148
C       -2.0969053443    1.4841224679    4.1209626208
C       -1.3954608576   -0.9088404000    4.3140732345
N        2.7070713578   -1.7418743558    4.9681322316
N        1.8384089579   -0.8837426295    4.3497872294
N       -1.0736394386    0.5060137694    4.4754397740
O        0.3357994361    2.1149169581    5.2399922055
H        0.9987985463   -1.0347903827   -0.9126722005
H        1.6494762549   -3.0897006801    0.3208715740
H        0.7906642092    1.1191501351    0.3045608400
H        2.0559358732   -3.0001407885    2.7535896860
H        1.2142881841    1.2314858732    2.7116498611
H        1.5832773093    0.0972083979    7.4498657870
H        3.3393747479   -1.9261012728    6.9895695280
H       -2.6219238134    1.1652852591    3.2149410542
H       -1.6587506235    2.4649195142    3.9101702096
H       -2.8193028708    1.5880587734    4.9362294361
H       -2.4677683354   -1.0714403810    4.4617561130
H       -0.8750599554   -1.5242430624    5.0548583528
H       -1.1250614321   -1.2500906602    3.3098417342
29   

C        1.2177392091   -1.0011175697    0.1140947456
C        1.5974245378   -2.1461445856    0.8153673857
C        1.0793048476    0.2107776648    0.7924963707
C        1.8245840868   -2.0794182741    2.1944730237
C        1.3056506694    0.2749937961    2.1723270233
C        1.7024414902   -0.4469927328    6.4753092283
C        2.6633411671   -1.4867546068    6.2237940811
C        1.6627191219   -0.8753069966    2.9084394211
C        1.2135677790   -0.1039027503    5.2510641705
C        0.1515225683    0.9037023445    4.9194406818
C       -2.1453023092    1.4453094869    4.1289305731
C       -1.4526431412   -0.9386733014    4.4723934466
N        2.7232213797   -1.7279319019    4.9383512821
N        1.8712832429   -0.8589279695    4.3103314219
N       -1.1158575002    0.4813457660    4.5072335558
O        0.4045305853    2.1100874189    4.9669861610
H        1.0413696269   -1.0505266696   -0.9547029388
H        1.7172151287   -3.0887665412    0.2928547889
H        0.8045167107    1.1081303027    0.2490848630
H        2.1176548932   -2.9794584937    2.7239466219
H        1.2265167805    1.2431555185    2.6510649723
H        1.4210892931   -0.0359032205    7.4371093901
H        3.2392140601   -2.0045653560    6.9821314911
H       -2.2405330154    1.4803027894    3.0391732988
H       -1.9135928736    2.4523817657    4.4893450257
H       -3.1088368654    1.1612813654    4.5632270136
H       -2.5330884009   -1.0797649091    4.5749651326
H       -0.9785377614   -1.4790553234    5.2979917251
H       -1.1322474517   -1.3804946202    3.5233426151
29   

C        1.3473678246   -1.0828284820    0.0207573663
C        1.7223799120   -2.2035490941    0.7620863552
C        1.1815821005    0.1452674085    0.6622799033
C        1.9182891624   -2.0958191995    2.1434518061
C        1.3766025501    0.2500098640    2.0444607042
C        1.6085272116   -0.4672304199    6.3885371899
C        2.6124494465   -1.4722379102    6.1708094210
C        1.7299601379   -0.8738931451    2.8211885790
C        1.1899171973   -0.1014393362    5.1446022832
C        0.1405804474    0.9081074520    4.7721946150
C       -2.2073631758    1.4634960321    4.1826875425
C       -1.5483204828   -0.9059500252    4.6865676078
N        2.7575815063   -1.6752496265    4.8860214902
N        1.9169162870   -0.8176668693    4.2259872598
N       -1.1767349152    0.4991927498    4.5546530669
O        0.4462165882    2.0917545157    4.6070035900
H        1.1962147401   -1.1631643612   -1.0499887270
H        1.8634967798   -3.1589282126    0.2689957948
H        0.9112536044    1.0249480754    0.0886000121
H        2.2091918227   -2.9784139732    2.7024539098
H        1.2816925741    1.2315135042    2.4889281417
H        1.2624710701   -0.0862798007    7.3414877695
H        3.1579706288   -1.9928354799    6.9494033957
H       -2.3400398032    1.4695537280    3.0963588733
H       -1.9469922390    2.4748394817    4.5109128399
H       -3.1592587110    1.2063340285    4.6575594626
H       -2.6219803334   -1.0048912123    4.8739597775
H       -1.0305760225   -1.3761481720    5.5284091255
H       -1.3029713170   -1.4476506686    3.7672491899
29   

C        1.5948084033   -1.1314934116   -0.1230959565
C        1.8735523952   -2.2567453722    0.6527315499
C        1.4355361542    0.1094284152    0.4945047439
C        1.9794996666   -2.1395117139    2.0432508975
C        1.5419595617    0.2229308488    1.8856800350
C        1.4482476639   -0.5482038620    6.2533924282
C        2.4848378688   -1.5268133060    6.0811849523
C        1.7957307393   -0.9027477662    2.6957442091
C        1.1108955451   -0.1518180714    4.9932783361
C        0.0592284850    0.8472490384    4.6035484399
C       -2.3206966935    1.4849980632    4.3322658368
C       -1.7126018336   -0.8470065042    5.0212716774
N        2.7197863864   -1.6928995193    4.8052974728
N        1.9070760131   -0.8366558515    4.1082084460
N       -1.2934585598    0.5069626389    4.6734314582
O        0.3782588206    1.9764862922    4.2209970149
H        1.5143890859   -1.2180887950   -1.2009360562
H        2.0109058343   -3.2225376414    0.1793968419
H        1.2415664063    0.9929163638   -0.1036719347
H        2.1990854265   -3.0253554345    2.6288502064
H        1.4663494626    1.2131020226    2.3101506092
H        1.0289298918   -0.2022131459    7.1900479705
H        2.9879114873   -2.0563291224    6.8820238672
H       -2.5416277094    1.4425912824    3.2613087218
H       -2.0001840990    2.4996914871    4.5901694058
H       -3.2378903461    1.2827944798    4.8943848611
H       -1.8834183740   -0.9271212980    6.0991779655
H       -0.9664452433   -1.5893627207    4.7208971792
H       -2.6386486808   -1.1013042408    4.4960123073
29   

C        1.7710608415   -1.1430306531   -0.2347684713
C        1.9396223098   -2.2804904766    0.5552498382
C        1.6576831493    0.1081803422    0.3729635290
C        1.9791403290   -2.1641563118    1.9492672565
C        1.7010186996    0.2203532639    1.7678309256
C        1.3234720410   -0.6494599224    6.1307723454
C        2.4134152650   -1.5713056476    5.9822879006
C        1.8379654055   -0.9158506758    2.5891433525
C        1.0225179113   -0.2308855503    4.8669839108
C       -0.0455616581    0.7431753639    4.4728855156
C       -2.4143036841    1.4717892378    4.4737303866
C       -1.8022866657   -0.8111170911    5.3052537350
N        2.7158611614   -1.6863353049    4.7158679201
N        1.8956230142   -0.8500845275    4.0033158437
N       -1.3848977346    0.4828912025    4.7757228462
O        0.2399787320    1.8000665705    3.9018810902
H        1.7417754461   -1.2286766604   -1.3152412414
H        2.0440436072   -3.2545083839    0.0905061057
H        1.5499909319    0.9998035012   -0.2346791165
H        2.1165583029   -3.0571717829    2.5487830461
H        1.6733099898    1.2136318617    2.1920916717
H        0.8505352382   -0.3484509216    7.0573142531
H        2.9046505085   -2.0992501915    6.7914652287
H       -2.7677908805    1.3480821832    3.4454971141
H       -2.0296233442    2.4893048036    4.5989861646
H       -3.2607710755    1.3595218030    5.1585743095
H       -1.8027699817   -0.7932160072    6.3993942511
H       -1.1446790224   -1.6147138989    4.9584243825
H       -2.8104435875   -1.0547834775    4.9551972677
29   

C        1.8731369227   -1.2133552109   -0.2512377086
C        3.0025221575   -1.5391375978    0.5010791180
C        0.6760264569   -0.9051470484    0.3969931298
C        2.9329843807   -1.5526210590    1.8988078503
C        0.6108550589   -0.9133157620    1.7954385536
C        1.1145690827   -1.0142022595    6.1068989708
C        2.1168533317   -2.0364840135    5.9716025529
C        1.7430857857   -1.2256002490    2.5779363975
C        0.9058705891   -0.5408580848    4.8435311090
C        0.1120838850    0.6510356256    4.4087066115
C       -1.9427104121    2.0343486321    4.4716691992
C       -1.9304478347   -0.2417883294    5.5190236379
N        2.4656106160   -2.1453339050    4.7157372731
N        1.7121578722   -1.2573757605    3.9944477526
N       -1.2155254572    0.8162910816    4.8137623260
O        0.6328949512    1.5145926555    3.7006846186
H        1.9250347842   -1.2017636990   -1.3341186722
H        3.9357195175   -1.7797298403    0.0044535121
H       -0.2062740860   -0.6602347100   -0.1834041951
H        3.8187125065   -1.8058767358    2.4707884787
H       -0.3401969187   -0.6906612498    2.2603154028
H        0.6846174415   -0.6508108834    7.0317576623
H        2.5391245071   -2.6126642160    6.7867810196
H       -2.4248120242    1.9265704943    3.4952759297
H       -1.2705615329    2.8984057444    4.4437900633
H       -2.7068925861    2.2444519894    5.2267022598
H       -1.8032478304   -0.1327211965    6.6004961899
H       -1.5776795040   -1.2315508970    5.2115545308
H       -2.9987790877   -0.1981007050    5.2841513701
29   

C        1.9625785691   -1.2952198212   -0.2717922372
C        3.0938148949   -1.5121749246    0.5166040220
C        0.7251119442   -1.0803346707    0.3380663862
C        2.9852925408   -1.5110227549    1.9118684447
C        0.6212954288   -1.0724815828    1.7343232819
C        0.9848945755   -1.0989094796    6.0518404079
C        2.0298537905   -2.0806825001    5.9480296012
C        1.7529999805   -1.2752116552    2.5510857271
C        0.8075588372   -0.6158368565    4.7854583254
C        0.0318693726    0.5782836466    4.3326258500
C       -1.9026020272    2.1151948838    4.4971596739
C       -1.9508786744   -0.0781153741    5.6998123363
N        2.4397561557   -2.1547266860    4.7091426051
N        1.6818332730   -1.2894420980    3.9657088271
N       -1.2271036692    0.8751593878    4.8662185975
O        0.4936794417    1.3300982378    3.4714707121
H        2.0446860103   -1.2947323528   -1.3528186400
H        4.0581052787   -1.6790564287    0.0501191015
H       -0.1575800554   -0.9186736922   -0.2700537753
H        3.8710888749   -1.6796239246    2.5140609095
H       -0.3537622193   -0.9177498773    2.1777122363
H        0.5196628387   -0.7581406118    6.9677659359
H        2.4391863335   -2.6509640309    6.7738882138
H       -2.4620337111    1.9801626916    3.5664500292
H       -1.1811742760    2.9285114345    4.3653934165
H       -2.5936799085    2.4216854739    5.2887959675
H       -1.7256842593    0.0904802925    6.7573493515
H       -1.6975744637   -1.1091861292    5.4329623269
H       -3.0297177337    0.0315913649    5.5496516132
29   

C        2.1890480162   -1.5700462737   -0.1653549882
C        3.2987764006   -1.6410126202    0.6786684649
C        0.9092877706   -1.4550676293    0.3818678682
C        3.1261848827   -1.5939090508    2.0666083622
C        0.7412422370   -1.4006636623    1.7709606834
C        0.8900668417   -1.2537654603    6.0908239857
C        1.9789241388   -2.1904057065    6.0529354217
C        1.8486396552   -1.4548080563    2.6412542814
C        0.7604808170   -0.7808675991    4.8125864785
C        0.0067297344    0.4053014798    4.3073603893
C       -1.7969572157    2.0911597800    4.4691399240
C       -1.9124011572    0.0252667022    5.8676539932
N        2.4656982602   -2.2461555203    4.8425271843
N        1.7132889139   -1.4207112316    4.0503966737
N       -1.1764989687    0.8466727214    4.9137439827
O        0.3959766508    1.0184575997    3.3103786921
H        2.3207081205   -1.6046949793   -1.2408742889
H        4.2953023552   -1.7298552096    0.2611604994
H        0.0439961672   -1.4056335351   -0.2690875604
H        3.9940954045   -1.6498551358    2.7140594343
H       -0.2607734338   -1.3198524254    2.1728992108
H        0.3783966861   -0.9269262573    6.9859927481
H        2.3643970694   -2.7393322782    6.9043536315
H       -2.3983306697    1.9161493102    3.5717542657
H       -1.0352271599    2.8462161521    4.2475955589
H       -2.4390816399    2.4999112750    5.2557912765
H       -1.6017399116    0.2553872551    6.8913685260
H       -1.7635809989   -1.0406318008    5.6674818581
H       -2.9870415436    0.2147573913    5.7794101489
29   

C        2.7420119942   -0.9867772847   -0.0930223936
C        2.7254377982    0.0359211477    0.8584205688
C        2.2625915482   -2.2540395035    0.2441861307
C        2.2196677104   -0.2065564586    2.1415885042
C        1.7648361335   -2.4939071197    1.5298792524
C        0.5217649432   -1.5770172466    5.8752414650
C        1.2578286566   -2.7951285576    5.6852731347
C        1.7141935751   -1.4726267265    2.4967085235
C        0.5018802141   -0.9512793892    4.6548423656
C       -0.3477061885    0.1682939285    4.1472933270
C       -1.9737590659    2.0110470936    4.4251661654
C       -0.7311192090    1.1696013539    6.4148539632
N        1.6251448059   -2.8929997068    4.4376724166
N        1.2167671990   -1.7581934030    3.7907118083
N       -1.0411575096    1.0430139279    4.9967787421
O       -0.4298266536    0.3979882272    2.9376911475
H        3.1260462271   -0.7981442702   -1.0890862526
H        3.1013423038    1.0200228847    0.6034277795
H        2.2728447501   -3.0527855800   -0.4887082607
H        2.2175970555    0.5960258337    2.8687083258
H        1.3964310370   -3.4810249702    1.7854752581
H        0.0056381992   -1.3155849192    6.7878151192
H        1.4447601513   -3.5411111822    6.4490797106
H       -2.6847114814    2.3528944264    5.1840459848
H       -2.5559406304    1.5551960068    3.6172567946
H       -1.4297771384    2.8748110329    4.0304923446
H        0.3328256280    0.9903946497    6.5998113176
H       -1.3372690442    0.4745287516    7.0038863655
H       -0.9408358772    2.1873496113    6.7595395687
29   

C        2.7496573542   -0.9420419654   -0.0462681229
C        2.5591392952    0.0893478058    0.8758695544
C        2.4208219390   -2.2528357460    0.3038518117
C        2.0308139159   -0.1890492530    2.1424027431
C        1.8999989420   -2.5281820732    1.5732401002
C        0.3565491942   -1.6775386697    5.8404177326
C        1.1440713311   -2.8686696324    5.6810478663
C        1.6772489728   -1.5026320180    2.5115281729
C        0.3790611164   -1.0498206716    4.6238956977
C       -0.4803542886    0.0571704468    4.1083579227
C       -1.9463174888    2.0252053859    4.4215301308
C       -0.5030335053    1.2515673672    6.3073369459
N        1.5794988004   -2.9437564917    4.4522942637
N        1.1583423117   -1.8218538512    3.7898414179
N       -0.9987282027    1.0489804910    4.9510548383
O       -0.7360489795    0.1454218243    2.9048340872
H        3.1517608446   -0.7263649061   -1.0296681672
H        2.8185180387    1.1079138788    0.6109706386
H        2.5655541421   -3.0585854043   -0.4068444083
H        1.9000016862    0.6252309517    2.8437873085
H        1.6478312989   -3.5494293727    1.8360264248
H       -0.2178840062   -1.4221255205    6.7206096554
H        1.3199092434   -3.6122109865    6.4498462184
H       -2.5405877363    2.4592395825    5.2318887785
H       -2.6452949657    1.5482149556    3.7262969161
H       -1.4141634670    2.8266003888    3.8998277168
H        0.5470716831    0.9541274046    6.3919834390
H       -1.1057870610    0.6856757020    7.0242190050
H       -0.5517652775    2.3125064415    6.5729958836
29   

C        2.7491970008   -0.8179948786    0.0333205313
C        2.4327782568    0.2010324891    0.9338042151
C        2.5432597865   -2.1500607109    0.3959892117
C        1.9018736862   -0.1115243348    2.1911040825
C        2.0192944817   -2.4593954597    1.6562785368
C        0.2473081874   -1.7243917481    5.8556304606
C        1.0924933101   -2.8790635393    5.7176711681
C        1.6719845243   -1.4493195677    2.5738117846
C        0.3014002958   -1.0834634010    4.6494969952
C       -0.5526318550    0.0291167103    4.1342942633
C       -1.8486654819    2.1144400388    4.4559361540
C       -0.2841825171    1.3338428261    6.2454015549
N        1.5938254856   -2.9132851059    4.5110708220
N        1.1515583578   -1.8024286367    3.8430418466
N       -0.9114143229    1.1095444616    4.9478134049
O       -0.9594893640    0.0132212175    2.9705622574
H        3.1540903002   -0.5761910874   -0.9428723096
H        2.5978009670    1.2367098747    0.6595192920
H        2.7860010399   -2.9465823675   -0.2982318028
H        1.6802811049    0.6992543466    2.8728662572
H        1.8626933062   -3.4977138417    1.9265882157
H       -0.3714619433   -1.4863348489    6.7111655593
H        1.2646063904   -3.6257463938    6.4842599312
H       -2.3692594663    2.5904924258    5.2929360797
H       -2.6126982396    1.6570813117    3.8184613128
H       -1.3175546399    2.8804610252    3.8827456559
H        0.7422501540    0.9534404183    6.2597899819
H       -0.8630101638    0.8508263563    7.0386058538
H       -0.2270257937    2.4064178269    6.4570462293
29   

C        2.7665803978   -0.7653481862    0.1282792302
C        2.3336974051    0.2277667578    1.0084134475
C        2.6853308604   -2.1065240942    0.5054966372
C        1.8114657461   -0.1201546205    2.2598925160
C        2.1687183859   -2.4512279286    1.7596695828
C        0.2125674985   -1.8669722975    5.8991235952
C        1.1247357367   -2.9718106116    5.7757908932
C        1.7060920941   -1.4699982791    2.6580630951
C        0.2767980633   -1.2081992148    4.7051343263
C       -0.5889520402   -0.0975406828    4.1991355012
C       -1.7205804863    2.0869686178    4.5040082970
C       -0.0285463649    1.3067657458    6.1780144220
N        1.6769712638   -2.9543677724    4.5902831465
N        1.1959826240   -1.8599714072    3.9214251208
N       -0.7894889005    1.0590877071    4.9583093980
O       -1.1541739580   -0.2030682764    3.1093466093
H        3.1659715959   -0.4962111974   -0.8430649918
H        2.4032263938    1.2714122638    0.7233445035
H        3.0197146334   -2.8832904941   -0.1728843636
H        1.5070499553    0.6787474859    2.9226888759
H        2.1098204668   -3.4973112453    2.0390528770
H       -0.4408596447   -1.6604270577    6.7373628897
H        1.3096556636   -3.7205478168    6.5373765874
H       -2.1661476825    2.5997717079    5.3623089408
H       -2.5426435524    1.6485177948    3.9286552011
H       -1.2008957873    2.8198759750    3.8794216062
H        0.9707668371    0.8635150733    6.1189616706
H       -0.5548278656    0.8971013074    7.0456885512
H        0.1093474936    2.3826573034    6.3258062169
29   

C        2.6904897566   -0.6341019028    0.1097767192
C        1.3187711299   -0.4488611474    0.2881217333
C        3.4369955147   -1.2612584602    1.1076590142
C        0.6971431741   -0.8791610111    1.4664858280
C        2.8121606016   -1.6869433677    2.2852662736
C       -0.0710064795   -1.9974563389    5.7200150182
C        0.7399456285   -3.1610599300    5.5002769450
C        1.4337642706   -1.4858795897    2.5025971567
C        0.0332006179   -1.2568449377    4.5782598119
C       -0.6284140867    0.0574184245    4.2958157052
C       -1.0906090861    2.4177554547    4.8943264122
C        0.6622373253    1.1277844795    6.1353285694
N        1.2854993408   -3.0930514831    4.3144127904
N        0.8466647000   -1.9444739466    3.7077947572
N       -0.3786966643    1.1631455424    5.1133934211
O       -1.4220966647    0.1793742016    3.3577346148
H        3.1704929924   -0.3044547932   -0.8048525000
H        0.7271599803    0.0165450105   -0.4923989939
H        4.5003200605   -1.4229428077    0.9705401492
H       -0.3758731930   -0.7728090664    1.5350996226
H        3.4054435163   -2.1778420393    3.0486877989
H       -0.6483122277   -1.7676188255    6.6069476526
H        0.8872054279   -3.9674669438    6.2093804746
H       -1.1673622448    2.9787376513    5.8310917965
H       -2.1112638847    2.2338872020    4.5429840833
H       -0.5632531570    3.0278818195    4.1546270039
H        1.4736432175    0.4484793640    5.8548764136
H        0.2434043385    0.8113056479    7.0954698109
H        1.1083322102    2.1203474246    6.2541068706
29   

C        2.6615057436   -0.4987742893    0.2657596611
C        1.3000551890   -0.2753654991    0.4736184636
C        3.3928510246   -1.2224547177    1.2076813172
C        0.6739649799   -0.7632292493    1.6266867242
C        2.7635934301   -1.7089010206    2.3591717216
C       -0.2096675098   -2.1292122407    5.7537307355
C        0.6672994742   -3.2475820530    5.5486958222
C        1.3953504359   -1.4738304430    2.6077275869
C       -0.0835061521   -1.3596964462    4.6353602116
C       -0.7724555528   -0.0572251584    4.3434924891
C       -1.0515945182    2.3744263820    4.7351578169
C        0.8004813242    1.1206423054    5.8672252281
N        1.2690204064   -3.1236240188    4.3940403675
N        0.8049128516   -1.9821670550    3.7929969639
N       -0.3626770107    1.1131875256    4.9858220584
O       -1.7060948214   -0.0077137179    3.5378058060
H        3.1451662933   -0.1223773488   -0.6287256441
H        0.7195750475    0.2663887441   -0.2649882348
H        4.4485583772   -1.4109831674    1.0476687620
H       -0.3918541745   -0.6126275372    1.7142141664
H        3.3486290674   -2.2712341715    3.0784625444
H       -0.8370851749   -1.9438093199    6.6167675517
H        0.8183287137   -4.0633547903    6.2462039971
H       -0.9871416562    3.0227109344    5.6147470087
H       -2.1147676115    2.2092225604    4.5321221773
H       -0.6010425322    2.8872958605    3.8798625177
H        1.5343410826    0.3642572746    5.5715126863
H        0.4947936837    0.9377189762    6.9019169754
H        1.3076682496    2.0891614292    5.8137464774
29   

C        2.5649624555   -0.2870960436    0.4779893887
C        1.2080057056   -0.0651031551    0.7158818545
C        3.2970409793   -1.0886785306    1.3541872281
C        0.5871120518   -0.6317855548    1.8351518076
C        2.6736248888   -1.6552441260    2.4715648496
C       -0.3609870860   -2.2752633531    5.8150112423
C        0.5590032009   -3.3561554538    5.5901295333
C        1.3111638155   -1.4241492133    2.7513050103
C       -0.2064912526   -1.4432217280    4.7471847257
C       -0.9112521340   -0.1459593094    4.4653310482
C       -1.0007244269    2.3324156824    4.5857651238
C        0.9521722635    1.0815889719    5.5482681287
N        1.2044237418   -3.1559669633    4.4692806920
N        0.7277699842   -1.9998659459    3.9088703224
N       -0.3346189650    1.0629927875    4.8598700604
O       -1.9747776908   -0.1378004425    3.8403775780
H        3.0452043984    0.1521391075   -0.3893267378
H        0.6281551312    0.5392540999    0.0270037976
H        4.3493663488   -1.2745075438    1.1701211069
H       -0.4758493465   -0.4693008851    1.9516601888
H        3.2597400663   -2.2750154713    3.1412136830
H       -1.0317363803   -2.1537088975    6.6566256128
H        0.7067622747   -4.2019161185    6.2517026254
H       -0.8324082204    3.0369278631    5.4061702937
H       -2.0835197432    2.2028753633    4.4899236810
H       -0.6141590893    2.7656608560    3.6580704150
H        1.0362705307    0.2507480967    6.2556915714
H        1.0687878262    2.0055474164    6.1230099600
H        1.7683613677    1.0170359536    4.8213282454
29   

C        2.5195861498   -0.1958251591    0.6064845199
C        1.1574625371   -0.0135026783    0.8502607585
C        3.2744951733   -0.9948435178    1.4659623807
C        0.5539010174   -0.6169272631    1.9597045747
C        2.6688407377   -1.5982461956    2.5737035081
C       -0.4553535661   -2.4056342354    5.8291915733
C        0.5166139668   -3.4436423770    5.6159502087
C        1.3023353556   -1.4062040128    2.8594287440
C       -0.2625598471   -1.5171608891    4.8148237542
C       -0.9730050314   -0.2187900299    4.5643216072
C       -0.9752329574    2.2685893730    4.5005687853
C        1.0298253440    1.0241931028    5.3459232508
N        1.2242564416   -3.1702059630    4.5489130099
N        0.7359187914   -2.0097754997    4.0101018349
N       -0.3191614227    0.9963552739    4.7886123981
O       -2.1226996172   -0.2166835826    4.1173351724
H        2.9868581568    0.2725824774   -0.2526586932
H        0.5615175003    0.5896216877    0.1741396371
H        4.3309627457   -1.1495058705    1.2766004952
H       -0.5129472534   -0.4820587881    2.0877665129
H        3.2709924927   -2.2149352117    3.2320416383
H       -1.1768943830   -2.3414327839    6.6344679511
H        0.6552155954   -4.3120766791    6.2495471357
H       -0.7831604226    2.9854870784    5.3048375502
H       -2.0611181976    2.1579065734    4.4203454013
H       -0.5970169716    2.6781183125    3.5587135139
H        1.1705228425    0.2274821842    6.0834003006
H        1.2140783986    1.9730361182    5.8592685034
H        1.7711838113    0.9101109216    4.5484658877
29   

C        2.4917610013   -0.1853970313    0.6537649238
C        1.1289361083   -0.0171038344    0.9048593884
C        3.2608143284   -0.9736804751    1.5110111027
C        0.5387560660   -0.6240151413    2.0195784744
C        2.6683889786   -1.5812436038    2.6236174174
C       -0.5426453752   -2.4975082311    5.7931789343
C        0.4584365337   -3.5110522831    5.5960535858
C        1.3018966426   -1.4029745803    2.9155845348
C       -0.3044776188   -1.5586529115    4.8350289968
C       -1.0105165632   -0.2511427580    4.6457890308
C       -0.9971423195    2.2271590305    4.4742321541
C        1.0716711210    1.0113983924    5.1795460466
N        1.2253943192   -3.1807415014    4.5877575469
N        0.7459152466   -2.0083626394    4.0691247716
N       -0.3217393482    0.9626143551    4.7465505806
O       -2.2195759183   -0.2362045782    4.3993686219
H        2.9490120328    0.2858934686   -0.2092244908
H        0.5230474040    0.5783623292    0.2307721469
H        4.3179017871   -1.1168209051    1.3159527267
H       -0.5281033787   -0.4986838159    2.1598066337
H        3.2796614892   -2.1901738334    3.2808975413
H       -1.3066952946   -2.4738516566    6.5607991646
H        0.5748928978   -4.4025666836    6.2014311988
H       -1.3368440063    2.6834539036    5.4089597075
H       -1.8601122739    2.0874892336    3.8153319105
H       -0.3134977516    2.9152063934    3.9668851171
H        1.3118895564    0.1788038439    5.8484143344
H        1.2615080293    1.9334272814    5.7380404056
H        1.7418249511    0.9821454182    4.3146272798
29   

C        0.8285948647   -1.7965528358    0.3697111141
C        0.0697893333   -2.2706502170    1.4415533756
C        1.8927765293   -0.9250806667    0.6069285646
C        0.3657719100   -1.8627627299    2.7475316416
C        2.1891168010   -0.5216123531    1.9135361232
C        1.6508279775   -0.1068253833    6.4780569446
C        2.9988995704   -0.0064782531    5.9880044511
C        1.4212318025   -0.9636253055    3.0081652355
C        0.8812775643   -0.3899416200    5.3891353612
C       -0.6118978269   -0.4657965447    5.3659277588
C       -2.8276942093    0.0782679145    4.4023251252
C       -0.7956634357    1.2890757118    3.5954807445
N        3.0132193064   -0.2201400608    4.6968207781
N        1.7330983056   -0.5135367663    4.3132439591
N       -1.3797433778    0.2516424424    4.4409098564
O       -1.1962928435   -1.1337085402    6.2242191178
H        0.5985720138   -2.1114000853   -0.6421957856
H       -0.7461386512   -2.9624857196    1.2635614852
H        2.4918143098   -0.5605034640   -0.2202810605
H       -0.2241078417   -2.2741530257    3.5577490722
H        3.0192609189    0.1556140322    2.0833144531
H        1.3115554025    0.0530289516    7.4946212842
H        3.8678864516    0.2336390781    6.5897114955
H       -3.3101603406    0.7602024073    5.1092129926
H       -3.1058944685   -0.9507270588    4.6528492777
H       -3.2058684257    0.2798028265    3.3950474394
H       -0.5722140825    0.8930674310    2.6000085066
H        0.1200275284    1.6965101051    4.0353437376
H       -1.4944553908    2.1248772398    3.4892663605
29   

C        0.8403560625   -1.7953384661    0.3554906669
C        0.0542605530   -2.2390949098    1.4210639746
C        1.9131776063   -0.9355372979    0.5972067668
C        0.3323053348   -1.8125311287    2.7252375365
C        2.1920740053   -0.5145912309    1.9020079090
C        1.6007787801   -0.1432515178    6.4680376111
C        2.9573604103   -0.0758740109    5.9978635077
C        1.3975543830   -0.9268764116    2.9888011738
C        0.8285750224   -0.3507885334    5.3626327906
C       -0.6643652449   -0.3104450103    5.3607007548
C       -2.8701293673    0.2229789226    4.3842606865
C       -0.8168307250    1.2629986729    3.4198817809
N        2.9788925230   -0.2352541428    4.6995902170
N        1.6935603540   -0.4650112989    4.2922380453
N       -1.4145245028    0.3164124988    4.3575065019
O       -1.2704062996   -0.7547579636    6.3405667141
H        0.6245242948   -2.1241690619   -0.6551147279
H       -0.7691561941   -2.9209212353    1.2391360510
H        2.5326964060   -0.5940302161   -0.2247949417
H       -0.2794523865   -2.1936263323    3.5341282250
H        3.0296090339    0.1521910466    2.0771214890
H        1.2554174761    0.0018847608    7.4850488666
H        3.8270517287    0.1076004885    6.6182023162
H       -3.2842141592    0.9505072288    5.0892788543
H       -3.1865968122   -0.7824531261    4.6812935683
H       -3.2824772584    0.4146878780    3.3885416161
H       -0.6564017409    0.7927369413    2.4449554601
H        0.1338639528    1.6539202279    3.7952240603
H       -1.4787594807    2.1241728787    3.2840574190
29   

C        0.8726208936   -1.7710408229    0.3557223860
C        0.0923766790   -2.2267278521    1.4209106766
C        1.9336759840   -0.8966969837    0.5981157129
C        0.3648871451   -1.7978675440    2.7256680778
C        2.2073160383   -0.4740196780    1.9034002986
C        1.6356216816   -0.2560165642    6.4841672235
C        2.9905024071   -0.1842110465    6.0114491051
C        1.4187006467   -0.8992299757    2.9891091329
C        0.8486586548   -0.3790486702    5.3747629033
C       -0.6385502552   -0.2458099821    5.4150934510
C       -2.8663126542    0.2413272340    4.4763735308
C       -0.8441110275    1.1833554380    3.3703981129
N        3.0021869767   -0.2591253782    4.7061107666
N        1.7112774910   -0.4421551600    4.2940416128
N       -1.4114330717    0.2891681022    4.3757824324
O       -1.2151247553   -0.4913273187    6.4788148774
H        0.6614713956   -2.1015578984   -0.6553352432
H       -0.7220703546   -2.9189048993    1.2378164071
H        2.5485351466   -0.5458542823   -0.2234851907
H       -0.2419893682   -2.1827680071    3.5365877434
H        3.0364375615    0.2026454028    2.0808866998
H        1.2999093265   -0.1509660713    7.5095641864
H        3.8661662725   -0.0535561620    6.6367365589
H       -3.2268731456    1.0287258951    5.1457568543
H       -3.1922046200   -0.7308041463    4.8612378051
H       -3.3217225716    0.3735710591    3.4897970707
H       -0.7366281052    0.6705790357    2.4099436307
H        0.1268346569    1.5772755986    3.6853462951
H       -1.4998930474    2.0479721362    3.2266286223
29   

C        0.9088703606   -1.7442750203    0.3592054199
C        0.1299044400   -2.2120182505    1.4203933619
C        1.9546559690   -0.8528809068    0.6067879497
C        0.3887183058   -1.7784344794    2.7265122294
C        2.2147044692   -0.4257411600    1.9133770844
C        1.6306092753   -0.3522699605    6.4976229559
C        2.9881991545   -0.2890704709    6.0329205013
C        1.4270083453   -0.8636032267    2.9942629291
C        0.8396798440   -0.3864030081    5.3829921666
C       -0.6360253400   -0.1487654662    5.4518281987
C       -2.8833159080    0.2753367203    4.5415577656
C       -0.8961314592    1.1201991541    3.3142004433
N        3.0022401435   -0.2829184849    4.7260956598
N        1.7089684218   -0.4093213094    4.3016038114
N       -1.4326201187    0.2812958299    4.3819816034
O       -1.1724074236   -0.1844767379    6.5623258979
H        0.7087823328   -2.0785505232   -0.6528741248
H       -0.6727095179   -2.9167094030    1.2329225994
H        2.5686960003   -0.4930184760   -0.2115394025
H       -0.2164707269   -2.1685069100    3.5364154878
H        3.0330305331    0.2623899127    2.0969545955
H        1.2980855447   -0.2809238871    7.5271147091
H        3.8645993935   -0.2170975046    6.6666247507
H       -3.2027870465    1.1299315756    5.1464955149
H       -3.2101106077   -0.6484950538    5.0305938530
H       -3.3752593066    0.3235008681    3.5649067578
H       -0.8295570320    0.5627199185    2.3754122327
H        0.0878361046    1.5211755824    3.5745678254
H       -1.5504272198    1.9828551582    3.1527553906
