16   

C        5.0202630886    1.6401335211    0.1071591130
C        5.3180653195    0.5088224058    0.8042542566
C        3.3530568224    0.2730439071   -0.2439690917
C        2.0817715281   -0.3296392602   -0.7324156873
C        0.4484617141   -2.1483400718   -0.3783582883
N        3.8079575174    1.4804326344   -0.5366910435
N        4.2730450254   -0.3802713938    0.5943805355
N        1.6820491508   -1.4600941398   -0.0278889350
O        1.4028371036    0.0992021491   -1.6585119489
H        5.6395269664    2.5286899637    0.0586101067
H        6.2145480188    0.3526838875    1.3933557707
H        0.2815808801   -2.9939526628    0.2957587074
H        0.5048268798   -2.5284961517   -1.4038715874
H       -0.4041507924   -1.4653373833   -0.2982190519
H        4.2229501564   -1.3465220705    0.9006605333
H        2.1569345788   -1.6883901112    0.8341613757
16   

C        4.9862107661    1.6555024936    0.1829991334
C        5.3488063207    0.4765239178    0.7619730430
C        3.3945584653    0.2445907742   -0.3003654320
C        2.1386443816   -0.3764598304   -0.8111455777
C        0.4182953671   -2.0829605191   -0.3434279349
N        3.7759467857    1.4996846652   -0.4669464992
N        4.3494850445   -0.4407590800    0.4673892026
N        1.6634747682   -1.4061600230   -0.0130035088
O        1.5205299056   -0.0156233757   -1.8060725195
H        5.5583547948    2.5755591174    0.2222125405
H        6.2575860967    0.3088714969    1.3286724311
H        0.1944578956   -2.8502375972    0.4039454028
H        0.4979461194   -2.5664429904   -1.3228273612
H       -0.4096878867   -1.3662154727   -0.3663750334
H        4.3446579758   -1.4356920788    0.6720155684
H        2.0850242676   -1.5385026983    0.8971271751
16   

C        4.9502478676    1.6578373472    0.2656847640
C        5.3902857486    0.4535083280    0.7287839372
C        3.4457440049    0.2042939721   -0.3405223938
C        2.2076256887   -0.4436321883   -0.8725694117
C        0.3996024116   -2.0286849343   -0.3283334039
N        3.7409106592    1.4916661625   -0.3845594771
N        4.4435355441   -0.4912497403    0.3569315017
N        1.6507981480   -1.3610274534   -0.0028496023
O        1.6644843632   -0.1682532946   -1.9360942820
H        5.4670773006    2.6030634160    0.3875069890
H        6.3144447171    0.2886901067    1.2709327768
H        0.1248184750   -2.7265619081    0.4684654812
H        0.5018709773   -2.5926724790   -1.2614949045
H       -0.4046657050   -1.2939492323   -0.4423277456
H        4.4876427103   -1.4991987685    0.4792875440
H        2.0269664900   -1.4125862264    0.9359029502
16   

C        4.8545676702    1.6507093162    0.3419505805
C        5.3948350542    0.4463333642    0.6845414493
C        3.4357236997    0.1489168161   -0.3386515308
C        2.2185095525   -0.5440366870   -0.8785176946
C        0.3434130664   -2.0214327054   -0.2751675122
N        3.6334666034    1.4534098987   -0.2780170278
N        4.5013156985   -0.5299102448    0.2649944482
N        1.5827692643   -1.3330718633    0.0515649966
O        1.7761095278   -0.4093512936   -2.0133719611
H        5.3097938742    2.6170516277    0.5273435246
H        6.3488966229    0.3031412756    1.1789332784
H        0.0235405298   -2.6434933689    0.5663709826
H        0.4860149711   -2.6683664083   -1.1472255387
H       -0.4469688993   -1.2958005843   -0.4949048923
H        4.6097657860   -1.5397679643    0.3088384645
H        1.9042116073   -1.2817144196    1.0111383991
16   

C        4.7886669292    1.6498578214    0.4710709163
C        5.4392016582    0.4657035521    0.6592010142
C        3.4417168515    0.1098057568   -0.2591196885
C        2.2624759378   -0.6234205979   -0.8437305193
C        0.3215426861   -2.0323136584   -0.2965757824
N        3.5462324206    1.4151692403   -0.0926296821
N        4.5936112517   -0.5355342459    0.2009265725
N        1.5021653305   -1.2756062150    0.0902469727
O        2.0411850284   -0.7343569127   -2.0440270098
H        5.1838692467    2.6278546545    0.7215931423
H        6.4336062328    0.3528861629    1.0757621419
H       -0.0943771825   -2.5525106064    0.5716979228
H        0.5780380319   -2.7793935235   -1.0550595752
H       -0.4425567486   -1.3602210315   -0.7014326480
H        4.7767560253   -1.5333132409    0.1314371284
H        1.6964557450   -1.0838855230    1.0666474628
16   

C        4.7726981512    1.6642448517    0.5606209440
C        5.5258636321    0.5272931284    0.5929307180
C        3.4829265686    0.0754595236   -0.1677803410
C        2.3526936735   -0.6885071675   -0.8087449715
C        0.3262019273   -2.0129550743   -0.3508953356
N        3.5081998981    1.3739116539    0.0754409548
N        4.7216382510   -0.5012812548    0.1213167650
N        1.4330520626   -1.1717456771    0.0785593208
O        2.3980883481   -1.1125032888   -1.9583412938
H        5.1138873775    2.6490995592    0.8590557667
H        6.5594631836    0.4640108697    0.9132848689
H       -0.1486887957   -2.4820899301    0.5161567798
H        0.6798731943   -2.8073422783   -1.0165014124
H       -0.4209997019   -1.4114171649   -0.8791314109
H        4.9742591260   -1.4671315243   -0.0734753963
H        1.4717063761   -0.8081382866    1.0246758103
16   

C        4.7297458534    1.6353954704    0.6855855911
C        5.5691342408    0.5677176858    0.5580493064
C        3.5089765870    0.0044672064   -0.0735871949
C        2.4153475424   -0.7846518920   -0.7339572275
C        0.2976519825   -1.9828738541   -0.3348933571
N        3.4558559847    1.2816662283    0.2708790863
N        4.8104110511   -0.4825289715    0.0598867506
N        1.3902791884   -1.1263463176    0.1003718062
O        2.5764558734   -1.3746066199   -1.7974077510
H        5.0175990907    2.6175499714    1.0432394496
H        6.6278844275    0.5650406685    0.7902826675
H       -0.2639283683   -2.3457557805    0.5312992005
H        0.6798462246   -2.8520007276   -0.8804102329
H       -0.3819804050   -1.4235374853   -0.9863380204
H        5.1170781606   -1.4017905163   -0.2505737999
H        1.3513479062   -0.6429960481    0.9918812637
16   

C        4.6986803454    1.5780551880    0.7685332301
C        5.5950862500    0.5840636605    0.5052677619
C        3.5371066733   -0.0768055277   -0.0343336599
C        2.4655950417   -0.8932826960   -0.6819451928
C        0.2638189039   -1.9435162108   -0.3160030309
N        3.4245249438    1.1675542884    0.4095093683
N        4.8737238327   -0.4779340727   -0.0224264149
N        1.3677143191   -1.0938773080    0.1031564785
O        2.6726320509   -1.5928059953   -1.6687417781
H        4.9462005385    2.5490618954    1.1823981074
H        6.6651764199    0.6377641738    0.6693015450
H       -0.3542544401   -2.2099769285    0.5467289199
H        0.6360812687   -2.8699171890   -0.7657170825
H       -0.3586853003   -1.4174599167   -1.0473122088
H        5.2132318369   -1.3527378537   -0.4169477901
H        1.3002019431   -0.5139173378    0.9340397390
16   

C        4.6763899520    1.5234043489    0.8343974791
C        5.6090366172    0.6081339923    0.4424666503
C        3.5610353481   -0.1427786646   -0.0108016826
C        2.5035071606   -0.9922977241   -0.6243145789
C        0.2343720277   -1.8999809834   -0.2872271841
N        3.4060102789    1.0583554817    0.5317606062
N        4.9161630342   -0.4593912582   -0.1114808246
N        1.3555431158   -1.0620168944    0.1079048631
O        2.7267430569   -1.7705406307   -1.5468439936
H        4.8950958068    2.4773014996    1.3009321181
H        6.6829238727    0.7168241808    0.5417238085
H       -0.4231849618   -2.0765816438    0.5693672948
H        0.5852107987   -2.8714138388   -0.6510083014
H       -0.3406772601   -1.4095849943   -1.0795609907
H        5.2754539462   -1.2916337232   -0.5751627850
H        1.2843635127   -0.4070235603    0.8816451180
16   

C        4.6660911848    1.4856269471    0.8907574366
C        5.6129719701    0.6489652532    0.3761921852
C        3.5769968610   -0.1703082301   -0.0072538154
C        2.5293508529   -1.0505446598   -0.5840817702
C        0.2050746559   -1.8263030005   -0.2982958191
N        3.4014719723    0.9772487981    0.6364891848
N        4.9360406913   -0.4116573570   -0.2096883773
N        1.3415912743   -1.0011233169    0.0788877280
O        2.7597223596   -1.8854846140   -1.4539402881
H        4.8702464240    2.4138574898    1.4124070054
H        6.6849474963    0.8037790516    0.4188857266
H       -0.4829704932   -1.9268415279    0.5465963215
H        0.5334190869   -2.8300063798   -0.5881220470
H       -0.3289870757   -1.3702325041   -1.1382900217
H        5.3025890472   -1.2027669370   -0.7358540032
H        1.2754029097   -0.2944917287    0.8071816929
16   

C        4.6710287836    1.4244499711    0.8135171981
C        5.6051675899    0.6301129066    0.2153411567
C        3.5719331028   -0.2383075699   -0.0590719385
C        2.5224963279   -1.1632207415   -0.5525045880
C        0.1494457545   -1.7944023395   -0.2922808298
N        3.4075611273    0.8824392189    0.6328224804
N        4.9213822712   -0.4360344645   -0.3521340044
N        1.3064237372   -0.9701807502    0.0213162391
O        2.7491895369   -2.0807115010   -1.3359609216
H        4.8830206432    2.3444116502    1.3465666544
H        6.6730630162    0.8147036053    0.1938147411
H       -0.4982381315   -1.8808836328    0.5854612985
H        0.4554261441   -2.8049400222   -0.5830647305
H       -0.4199357359   -1.3478070472   -1.1137406711
H        5.2765894533   -1.2160696497   -0.9022633777
H        1.2564611000   -0.1981494006    0.6820965396
16   

C        4.6952779089    1.4614792048    0.8046234301
C        5.6166133488    0.7359331127    0.1074239696
C        3.5961947305   -0.1768895304   -0.1130692496
C        2.5577950162   -1.1330819576   -0.5670933840
C        0.1465698957   -1.6661180434   -0.4126904978
N        3.4404956645    0.8883192009    0.6633734561
N        4.9330741108   -0.3158702767   -0.4864277674
N        1.3119505624   -0.8476541869   -0.1107331554
O        2.8009804588   -2.0931334091   -1.2924764848
H        4.9106426647    2.3528740035    1.3829360717
H        6.6762385026    0.9544380239    0.0411576747
H       -0.4049496529   -1.8854646221    0.5067402089
H        0.4359027526   -2.6212958396   -0.8634241715
H       -0.5121267646   -1.1403784761   -1.1110066634
H        5.2829853967   -1.0639534622   -1.0824888298
H        1.2562558928   -0.0387155775    0.5042489399
16   

C        4.6689076556    1.4313339953    0.8024042561
C        5.5721029313    0.7449687462    0.0444190114
C        3.5596424431   -0.1961683269   -0.1222476130
C        2.5285891396   -1.1854084028   -0.5204617882
C        0.0965395267   -1.6102964367   -0.5653933730
N        3.4205677424    0.8363842567    0.7001405841
N        4.8828129766   -0.3021192474   -0.5511875465
N        1.2586465261   -0.8040161030   -0.2252516832
O        2.7861578792   -2.2109438176   -1.1440956258
H        4.8933377562    2.3079917852    1.3994921933
H        6.6244436370    0.9839284798   -0.0576348079
H       -0.1533147808   -2.2799850053    0.2637806389
H        0.2855112830   -2.2119791320   -1.4607332621
H       -0.7611595780   -0.9631084194   -0.7725278948
H        5.2261137564   -1.0407068544   -1.1626632642
H        1.1752374438    0.0849424150    0.2625537910
16   

C        4.6549641614    1.5239519162    0.8331693280
C        5.5412198933    0.8990986339    0.0052365963
C        3.5629827459   -0.1221022534   -0.0793840855
C        2.5629940109   -1.1690732804   -0.4095087915
C        0.1453290742   -1.6183033925   -0.6065526044
N        3.4304608704    0.8752787027    0.7865086100
N        4.8641774347   -0.1612734915   -0.5809688131
N        1.2717681472   -0.7578005937   -0.2817001897
O        2.8608237498   -2.2400392130   -0.9302572819
H        4.8763410308    2.3921031066    1.4436735190
H        6.5755999285    1.1853467786   -0.1465577458
H       -0.0648765516   -2.2945815273    0.2284767046
H        0.3566240878   -2.2128980820   -1.5015617394
H       -0.7444909335   -1.0132645039   -0.8053115998
H        5.2101097138   -0.8804386187   -1.2135782562
H        1.1440872285    0.1639724314    0.1283648141
16   

C        4.6859415081    1.4894337710    0.8837487122
C        5.5131887119    0.9425161383   -0.0531090905
C        3.5535548279   -0.1174133853   -0.0491424296
C        2.5590459430   -1.1873761687   -0.3365048661
C        0.1574063416   -1.6317799453   -0.6845357411
N        3.4760627884    0.8128176236    0.8941469796
N        4.8115307249   -0.0944347188   -0.6522340644
N        1.2668597236   -0.7527567114   -0.3502165672
O        2.8736467758   -2.2852274096   -0.7862890068
H        4.9398933148    2.3202332463    1.5323528334
H        6.5266785100    1.2623628566   -0.2662660338
H       -0.0980622100   -2.2587761115    0.1760305631
H        0.4148523857   -2.2768178643   -1.5311489723
H       -0.7197870351   -1.0403607381   -0.9639604557
H        5.1272034088   -0.7743117793   -1.3413177916
H        1.1136419903    0.1892086190   -0.0009567117
16   

C        4.7337242307    1.4549814844    0.9497182592
C        5.4794803329    0.9875585580   -0.0925077316
C        3.5484611130   -0.1172586434    0.0247179265
C        2.5552748425   -1.2076892152   -0.2175901739
C        0.1852178290   -1.6695711692   -0.7217900931
N        3.5443931865    0.7478720267    1.0295240666
N        4.7449346280   -0.0284796223   -0.6881360355
N        1.2740826509   -0.7672921664   -0.3805686888
O        2.8848923414   -2.3359513910   -0.5702110140
H        5.0316689812    2.2498161230    1.6241596785
H        6.4629811087    1.3439915826   -0.3763483822
H       -0.1248688801   -2.2358168082    0.1626712835
H        0.4931264039   -2.3711115955   -1.5041417454
H       -0.6717854193   -1.1005936498   -1.0947946705
H        5.0164739008   -0.6657766466   -1.4340002284
H        1.0964315912    0.1978774812   -0.1194822266
16   

C        4.7946275361    1.4076243748    1.0216502594
C        5.4382016713    1.0243483763   -0.1183868825
C        3.5459282549   -0.1260865222    0.1188487462
C        2.5397718985   -1.2212609754   -0.0886865250
C        0.2151365968   -1.6959621132   -0.7597561358
N        3.6298413600    0.6723063237    1.1715854794
N        4.6625264772    0.0330948242   -0.7036981928
N        1.2903313059   -0.7783933421   -0.4148611470
O        2.8647390611   -2.3843742673   -0.3043109282
H        5.1474184829    2.1629776227    1.7147471272
H        6.3834509410    1.4185388597   -0.4733644358
H       -0.1639305934   -2.1871367443    0.1425705262
H        0.5672485752   -2.4601035068   -1.4605752959
H       -0.6060519917   -1.1514043165   -1.2356253970
H        4.8733200341   -0.5511916577   -1.5097054504
H        1.1072367046    0.2091128302   -0.2691227908
16   

C        4.8728451780    1.3131518679    1.0789379483
C        5.3810469505    1.0325423872   -0.1555465278
C        3.5580667180   -0.1884563501    0.2217104678
C        2.5165119499   -1.2627034616    0.0398764768
C        0.2411973453   -1.7171003824   -0.7889194888
N        3.7463317865    0.5402931567    1.3076440882
N        4.5591065546    0.0657390374   -0.7184578342
N        1.3287912553   -0.8083404739   -0.4595645859
O        2.7828313653   -2.4595483621    0.0334644543
H        5.2920682529    2.0253170964    1.7807106700
H        6.2689832879    1.4785654993   -0.5886653973
H       -0.2266616706   -2.0921473661    0.1273989059
H        0.6103380086   -2.5659343913   -1.3740533718
H       -0.5163702674   -1.1978013422   -1.3837371386
H        4.6804929329   -0.4414239344   -1.5917728454
H        1.1843964769    0.1956466062   -0.4606859550
16   

C        4.9089284864    1.2293432928    1.0922342548
C        5.2709771149    1.0535329788   -0.2111544919
C        3.5488199585   -0.2649533940    0.2944957795
C        2.4515522293   -1.2848950335    0.1341041782
C        0.2195930391   -1.6764804015   -0.8232933835
N        3.8334757394    0.4108532980    1.3921617092
N        4.4110681696    0.1021880505   -0.7431463551
N        1.3734538840   -0.8261212921   -0.5750923971
O        2.5325317707   -2.4526731624    0.4970435446
H        5.3906853857    1.9049092838    1.7900486478
H        6.0880715313    1.5605669040   -0.7115190684
H       -0.2840228467   -1.9152468906    0.1194825663
H        0.5288151484   -2.6080832026   -1.3087976842
H       -0.4911169638   -1.1657601028   -1.4802175087
H        4.4284033131   -0.3160972944   -1.6697911105
H        1.3389110666    0.1657260001   -0.7822372883
16   

C        5.0028544287    1.1250870697    1.1192839588
C        5.2176306632    1.0619036796   -0.2259696672
C        3.5691913204   -0.3222545370    0.3569981397
C        2.4314409051   -1.2928350116    0.2278915038
C        0.2355650798   -1.6486077907   -0.8277878516
N        3.9686570098    0.2737745894    1.4658413354
N        4.3070690904    0.1467626878   -0.7367041774
N        1.4489899161   -0.8691132509   -0.6365441346
O        2.3282151210   -2.3444579479    0.8485295005
H        5.5558523522    1.7477999837    1.8134309813
H        5.9712457071    1.6206215897   -0.7691634274
H       -0.3310895886   -1.7040210867    0.1078217397
H        0.4832151779   -2.6638525056   -1.1553342789
H       -0.3951442514   -1.1844365924   -1.5921285602
H        4.2227346392   -0.1867952687   -1.6933250600
H        1.5151742093    0.0751679800   -0.9980617291
16   

C        5.1143731264    1.0740637632    1.1294247823
C        5.2033986490    1.1017729005   -0.2306447455
C        3.5879986625   -0.3018244100    0.4075761471
C        2.4358386728   -1.2509323584    0.3205404692
C        0.3008688589   -1.6883053337   -0.8320572496
N        4.1040013460    0.2101701810    1.5112074467
N        4.2352120211    0.2329546642   -0.7153521962
N        1.5228885528   -0.9171695976   -0.6611770699
O        2.2414725741   -2.2007485018    1.0701968078
H        5.7386036803    1.6418314832    1.8101466052
H        5.9130204618    1.6894922680   -0.8017692975
H       -0.3050031364   -1.6470730685    0.0794850020
H        0.5396760530   -2.7337542468   -1.0541606603
H       -0.2881143311   -1.2849533463   -1.6614127225
H        4.0701232493   -0.0404082176   -1.6801830481
H        1.6295304752   -0.0220647565   -1.1225183772
16   

C        5.1720675235    1.0055281024    1.1436712200
C        5.1603699780    1.1349468820   -0.2127176679
C        3.5382372493   -0.2581225233    0.4426320914
C        2.3686705432   -1.1811280171    0.3785961021
C        0.3147417376   -1.7215560368   -0.8783107938
N        4.1632910409    0.1452717391    1.5358146059
N        4.1267621903    0.3374033304   -0.6843212758
N        1.5305477178   -0.9419754838   -0.7000397653
O        2.1020958982   -2.0492982204    1.2016188222
H        5.8664443355    1.4983773454    1.8147383966
H        5.8476850609    1.7415324251   -0.7913264638
H       -0.3404509939   -1.6087737928   -0.0077886160
H        0.5592245623   -2.7815098814   -1.0049947703
H       -0.2255428824   -1.3824983265   -1.7674208174
H        3.8951108095    0.1353259700   -1.6524583263
H        1.6723301170   -0.0961768022   -1.2367694762
16   

C        5.0834779977    1.3612066504   -0.2698101078
C        5.2529070499    0.4072602803    0.6871744941
C        3.2538098348    0.1682860226   -0.2934775001
C        1.8966973811   -0.3547988696   -0.6143295699
C        0.3674559515   -2.2780307865   -0.3637655305
N        3.8459737994    1.2043607713   -0.8645657948
N        4.0992418567   -0.3644942121    0.6951221871
N        1.6456277818   -1.6279538838   -0.1148627204
O        1.0445342358    0.2366702498   -1.2674065730
H        5.8044272803    2.1298696934   -0.5243014840
H        6.1275833094    0.3004718696    1.3185526437
H        0.3574923992   -3.2774802832    0.0815921798
H        0.1932671579   -2.3746942179   -1.4408763908
H       -0.4470758614   -1.6939075119    0.0775068531
H        3.8648107869   -1.1051083695    1.3481818598
H        2.4153204373   -2.1619440402    0.2635371487
16   

C        5.0683594067    1.6191884161    0.0278761360
C        5.2975991677    0.5658694016    0.8594234971
C        3.3389142602    0.3012334834   -0.1957897220
C        2.0515908334   -0.2837419663   -0.6657058408
C        0.4727383614   -2.1720719893   -0.4434762455
N        3.8600386838    1.4424515585   -0.6179987562
N        4.2104494939   -0.2886117022    0.7374316599
N        1.7083713091   -1.4962943763   -0.0755069432
O        1.3159399953    0.2185181019   -1.5080887267
H        5.7322401480    2.4648065393   -0.1119991862
H        6.1743397420    0.4398720474    1.4843374352
H        0.3892963199   -3.1252131889    0.0874378913
H        0.4557468183   -2.3731813435   -1.5200060568
H       -0.3912366820   -1.5510514860   -0.1835545502
H        4.0844790652   -1.1788115129    1.2060784103
H        2.2945937534   -1.8828211120    0.6487918589
