15   

C        2.3735518359   -0.8682187565   -1.0115462200
C        1.3057966043   -1.3292230266   -0.2891817577
C        3.4829494026   -1.6362979520   -1.7090710822
C       -0.8572570258   -0.4581808948   -1.1956530007
C       -0.0969922014   -1.7006085788   -0.7412463602
H        2.7542998242    0.0794580446   -0.6455391740
H        1.2943851480   -0.9856172796    0.7397830121
H        4.3819588067   -1.0183141029   -1.7920937391
H        3.1610583227   -1.9270168544   -2.7132216363
H        3.7275035474   -2.5397007956   -1.1426570953
H       -0.3416138055    0.0202026802   -2.0340196721
H       -0.9343284441    0.2588147020   -0.3719789792
H       -1.8673192251   -0.7332252745   -1.5142630259
H       -0.6345987565   -2.1731594717    0.0870573116
H       -0.0376904705   -2.4218150824   -1.5626446934
15   

C        2.4056407375   -0.8120111949   -0.9165608482
C        1.3162227935   -1.2303407743   -0.2171538569
C        3.3824520756   -1.6530253005   -1.7135338488
C       -0.8743611145   -0.4707630908   -1.1470838784
C       -0.0284022049   -1.6789077656   -0.7560494253
H        2.9115928954    0.0286045461   -0.4534743490
H        1.2400330005   -0.8350857997    0.7903465865
H        3.3330436205   -1.3801700594   -2.7716437873
H        3.1386649199   -2.7149630080   -1.6127123151
H        4.4029994414   -1.4916016810   -1.3538064864
H       -0.3685921705    0.1132974496   -1.9223042416
H       -1.0447604015    0.1699430593   -0.2760420535
H       -1.8435977325   -0.8014916335   -1.5325707241
H       -0.5521797683   -2.2622790605    0.0078923175
H        0.1227313242   -2.3216519821   -1.6293101280
15   

C        2.4586566581   -0.7799995848   -0.8202286628
C        1.3375753500   -1.1406327736   -0.1543898557
C        3.3012202945   -1.6572509270   -1.7196575644
C       -0.8888596134   -0.4954230274   -1.0775751253
C        0.0474580380   -1.6562206776   -0.7552464257
H        3.0362600216   -0.0002988159   -0.3350345815
H        1.2097258730   -0.6934988465    0.8258142976
H        3.2221547376   -1.3146776922   -2.7554979760
H        2.9619291051   -2.6961987363   -1.6657519237
H        4.3504415513   -1.6153223784   -1.4125466406
H       -0.4182819631    0.1825493154   -1.7966686656
H       -1.1281870138    0.0641887380   -0.1678712493
H       -1.8195958196   -0.8744802582   -1.5105675044
H       -0.4374728437   -2.3380380240   -0.0494619317
H        0.2642477560   -2.2153243922   -1.6712191509
15   

C        2.5138212965   -0.7852841050   -0.7248321681
C        1.3526283772   -1.0710969314   -0.1035017083
C        3.2401527660   -1.6516475141   -1.7252620886
C       -0.8786846754   -0.5176868104   -1.0640735761
C        0.1027505786   -1.6384091936   -0.7347261905
H        3.1499924597   -0.0737803402   -0.2091233959
H        1.1980772661   -0.5967061159    0.8598770542
H        3.1346982354   -1.2309066684   -2.7294980863
H        2.8315617428   -2.6666960051   -1.7229973400
H        4.3037853266   -1.7043982421   -1.4746392130
H       -0.4252521394    0.1873713647   -1.7680469640
H       -1.1603350681    0.0219584658   -0.1544772418
H       -1.7828703633   -0.9337787929   -1.5188202517
H       -0.3641511612   -2.3481650307   -0.0445275336
H        0.3576896156   -2.1782190992   -1.6522191846
15   

C        2.5561628544   -0.8140512040   -0.6487534651
C        1.3571190314   -1.0128242777   -0.0739639107
C        3.1924969110   -1.6343942060   -1.7421561437
C       -0.8451130640   -0.5312383950   -1.1269644759
C        0.1331565492   -1.6246623341   -0.7090658792
H        3.2375396173   -0.1716939273   -0.1010624079
H        1.1934941818   -0.5263516294    0.8818234515
H        3.0576076492   -1.1385533444   -2.7078527370
H        2.7450454623   -2.6315001200   -1.7895910955
H        4.2637450620   -1.7466588858   -1.5507155908
H       -0.3768906614    0.1368683107   -1.8567588615
H       -1.1545505757    0.0559818174   -0.2566711500
H       -1.7343247021   -0.9786696355   -1.5815386573
H       -0.3503184987   -2.2957328149    0.0079089979
H        0.4119889618   -2.2158902639   -1.5865303992
15   

C        2.5950509397   -0.8605971049   -0.5973056442
C        1.3552621282   -0.9499445984   -0.0894228483
C        3.1754760651   -1.6369920841   -1.7499758663
C       -0.8785735910   -0.5409413575   -1.1028689140
C        0.1460719659   -1.6006631993   -0.7101709436
H        3.3039290944   -0.2763210881   -0.0202604026
H        1.1797375090   -0.4213902675    0.8416043430
H        3.0192393311   -1.0910979674   -2.6850027031
H        2.7075947917   -2.6224060168   -1.8301898861
H        4.2499423552   -1.7792576438   -1.6013254224
H       -0.4472999063    0.1486321012   -1.8355105284
H       -1.1950235319    0.0286432223   -0.2234878154
H       -1.7580928805   -1.0176378991   -1.5464911418
H       -0.3009641754   -2.2937323878    0.0095122095
H        0.4283782672   -2.1749310262   -1.5973977993
15   

C        2.6215789214   -0.9209637067   -0.5384793496
C        1.3553191364   -0.8997938485   -0.0946607957
C        3.1620882680   -1.6334934833   -1.7499135504
C       -0.8295553411   -0.5455149598   -1.2309804590
C        0.1518582677   -1.5814066917   -0.6922834593
H        3.3364006832   -0.3266704775    0.0207130382
H        1.1745467015   -0.3306757980    0.8110757248
H        4.0926173858   -1.1607708097   -2.0777375281
H        2.4456417574   -1.5902390136   -2.5754330003
H        3.3656939018   -2.6809161414   -1.5086747732
H       -0.3559731705    0.0545696778   -2.0142508226
H       -1.1605298520    0.1189352745   -0.4265353967
H       -1.7063365114   -1.0458007819   -1.6535881346
H       -0.3411681720   -2.1805455883    0.0798086512
H        0.4504925829   -2.2598734562   -1.4969384274
15   

C        2.6382275601   -0.9874289253   -0.4970521143
C        1.3537414163   -0.8493666195   -0.1314755761
C        3.1723854545   -1.6360527949   -1.7471626238
C       -0.8576621408   -0.5480898620   -1.2345545113
C        0.1500260188   -1.5587287161   -0.6965001268
H        3.3644635066   -0.4463242931    0.1001616489
H        1.1705965793   -0.2399182113    0.7471624129
H        4.1017343638   -1.1472989338   -2.0542376379
H        2.4520858425   -1.5501014550   -2.5660798454
H        3.3761953102   -2.6947387234   -1.5617602764
H       -0.4083520785    0.0453851848   -2.0369077948
H       -1.1848213155    0.1250574363   -0.4358216516
H       -1.7337428009   -1.0697624861   -1.6320770343
H       -0.3202152810   -2.1512891107    0.0946580061
H        0.4453749345   -2.2465179516   -1.4945589454
15   

C        2.6493203642   -1.0582482440   -0.4696822067
C        1.3591320631   -0.8036372281   -0.1897052184
C        3.2062787545   -1.6417884333   -1.7433231483
C       -0.9066140897   -0.5466121163   -1.1969659470
C        0.1462692589   -1.5359306173   -0.7078342462
H        3.3754965739   -0.5662180029    0.1686668665
H        1.1769279458   -0.1409302077    0.6497395125
H        4.1432812211   -1.1419069796   -2.0060928920
H        2.5010137321   -1.5098633159   -2.5693456265
H        3.4018807649   -2.7099317231   -1.6110022305
H       -0.5054593327    0.0605784792   -2.0144688953
H       -1.2157773728    0.1151352022   -0.3817827767
H       -1.7860694887   -1.0870878350   -1.5605255978
H       -0.2763371146   -2.1440365916    0.0982783810
H        0.4252672188   -2.2104582059   -1.5231908961
15   

C        2.6547186892   -1.1314100546   -0.4575390815
C        1.3706826846   -0.7701340745   -0.2670733459
C        3.2662222370   -1.6460291784   -1.7389919245
C       -0.9574535079   -0.5447896579   -1.1445176533
C        0.1383665772   -1.5181182867   -0.7216335366
H        3.3674160030   -0.6840773572    0.2272385621
H        1.1955298796   -0.0467248149    0.5223131342
H        4.2125941881   -1.1337422672   -1.9361535961
H        2.5929396567   -1.4701854184   -2.5834815789
H        3.4567505455   -2.7200991809   -1.6570006781
H       -0.6126860708    0.0741783446   -1.9787947856
H       -1.2333033245    0.1064301630   -0.3092472089
H       -1.8456616748   -1.0989657554   -1.4634757860
H       -0.2272917851   -2.1413166085    0.1006517399
H        0.3863706074   -2.1782744046   -1.5588274211
15   

C        2.6322763615   -1.2128152787   -0.4682338122
C        1.3606485415   -0.7654941447   -0.3585020237
C        3.3354913951   -1.6467012173   -1.7357276380
C       -1.0253821023   -0.5335308708   -1.0824658147
C        0.0932923599   -1.5084043168   -0.7276899144
H        3.3149203514   -0.8077658515    0.2713543863
H        1.2062482997    0.0172208879    0.3768616289
H        4.2890250715   -1.1200538874   -1.8375844272
H        2.7170146677   -1.4232717731   -2.6104088395
H        3.5276193464   -2.7231801376   -1.7063640696
H       -0.7335232199    0.0810562899   -1.9398910766
H       -1.2456806429    0.1217125557   -0.2340280039
H       -1.9334667287   -1.0866346867   -1.3417472396
H       -0.2188060894   -2.1308800986    0.1169322960
H        0.2874940770   -2.1681545649   -1.5795034723
15   

C        2.6108296485   -1.2923018076   -0.5147432211
C        1.3471520620   -0.7909623224   -0.4775920429
C        3.4428644883   -1.6432349386   -1.7320459790
C       -1.0947314453   -0.5178079309   -0.9958460502
C        0.0363365049   -1.5098985856   -0.7402647845
H        3.2412576667   -0.9163137963    0.2842547779
H        1.2234522677    0.0604475912    0.1836015434
H        4.3928538502   -1.1009474006   -1.7110473370
H        2.9064410049   -1.3759959234   -2.6475688426
H        3.6489742952   -2.7173897104   -1.7464126251
H       -0.8667045374    0.0970285451   -1.8722973570
H       -1.2350786842    0.1359746476   -0.1295597343
H       -2.0287155060   -1.0572599589   -1.1813724593
H       -0.2114877116   -2.1368119005    0.1221978817
H        0.1494171630   -2.1635033403   -1.6112147687
15   

C        2.5863756649   -1.3695261418   -0.5843765006
C        1.3240329274   -0.8417411049   -0.6107319495
C        3.5568764243   -1.6376178147   -1.7219315120
C       -1.1541009071   -0.4992610682   -0.9074002353
C       -0.0303147194   -1.5212723827   -0.7560024768
H        3.1357370619   -1.1072280706    0.3137193273
H        1.2376157369    0.0726369896   -0.0330328580
H        3.4473662113   -0.8729936456   -2.4966208674
H        3.3528810415   -2.6173609932   -2.1634477140
H        4.5879320475   -1.6234724479   -1.3562098759
H       -0.9884779909    0.1138599454   -1.7989934610
H       -1.2012481097    0.1535191778   -0.0303890425
H       -2.1142805974   -1.0139369045   -1.0117265759
H       -0.2162897413   -2.1499324997    0.1206161560
H       -0.0133421975   -2.1696193291   -1.6378993439
