23   
Generated by ForceBalance from scan.xyz: Frame 1 of 24
C        1.9950866574   -1.2515095794   -0.0892842939
C        1.5146772868   -0.0717019806    0.4714914258
C        2.7267102620   -0.6145426536    2.5166617493
C        3.2029256403   -1.8179055875    1.9801728197
C        2.8054487939   -2.1081851969    0.6587539896
C        1.8978292695    0.2195529126    1.7747296657
C        4.1356929257   -2.4291918711    4.2865487681
C        4.1944895229   -2.6723822788    2.7763957542
N        5.6012440128   -2.4243120177    2.3677369373
N        3.2193942689   -3.3399210670   -0.0372555742
O        3.4200197690   -3.2621777266   -1.2525485179
O        3.3075635657   -4.3874539371    0.6149239626
O        5.6857800862   -2.2843437646    0.9328878161
F        1.4526496513    1.3609400809    2.3499133670
H        1.7450083125   -1.5211685053   -1.1087586278
H        0.8689174289    0.6046154836   -0.0786449998
H        2.9894669311   -0.3043484679    3.5209121478
H        4.4625940125   -1.4207542061    4.5618675912
H        3.1205423278   -2.5768107853    4.6636685511
H        4.7970555992   -3.1375177121    4.7919267258
H        3.9854860078   -3.7208100613    2.5804511262
H        5.8471357951   -1.4845723967    2.6861125328
H        6.2407123054   -3.0373052357    0.6697130389
23   
Generated by ForceBalance from scan.xyz: Frame 2 of 24
C        1.9884151166   -1.2468131547   -0.0995827345
C        1.4845991519   -0.0800833823    0.4683742399
C        2.6902897661   -0.6249810880    2.5167533075
C        3.1893148533   -1.8156654543    1.9750615149
C        2.8072237012   -2.0969613898    0.6458092936
C        1.8547981093    0.2046349896    1.7758440013
C        4.1509977618   -2.3562991840    4.2816399265
C        4.1465167015   -2.6936024935    2.7888504111
N        5.5682452654   -2.5909653705    2.3353915965
N        3.2582732629   -3.3064015512   -0.0648526840
O        3.4332568935   -3.2140183703   -1.2838814585
O        3.4111492808   -4.3518298315    0.5781708949
O        5.6581038169   -2.1959482658    0.9496056870
F        1.3903681907    1.3338710052    2.3593129158
H        1.7519006841   -1.5100728965   -1.1237936471
H        0.8324653359    0.5911095953   -0.0804536845
H        2.9371917473   -0.3179745904    3.5253278018
H        4.5147589106   -1.3424642152    4.4792966114
H        3.1503494870   -2.4570490660    4.7095792650
H        4.8126657915   -3.0520456728    4.8057699220
H        3.8427857832   -3.7300343679    2.6612221370
H        5.9601576410   -1.7715981285    2.8025218312
H        6.1186530847   -2.9459596863    0.5372032234
23   
Generated by ForceBalance from scan.xyz: Frame 3 of 24
C        1.9871574481   -1.2387846771   -0.1196629485
C        1.4587503159   -0.0838431373    0.4502805352
C        2.6495381946   -0.6271886715    2.5088499961
C        3.1735309004   -1.8048944216    1.9646580591
C        2.8108361491   -2.0812778536    0.6284185159
C        1.8101495778    0.1955165502    1.7636004225
C        4.1629242577   -2.2907568871    4.2714308480
C        4.1004905530   -2.6954465536    2.7968588012
N        5.5170936407   -2.7347170963    2.2927460158
N        3.2938881027   -3.2757136192   -0.0845659613
O        3.4423521497   -3.1849197208   -1.3083643880
O        3.5048016133   -4.3083528820    0.5615098417
O        5.6593733019   -2.0929038723    1.0067561944
F        1.3239804489    1.3134681944    2.3502825738
H        1.7667974453   -1.4986940406   -1.1481962105
H        0.8032136960    0.5817821151   -0.1012413128
H        2.8801814082   -0.3225340694    3.5216381046
H        4.5593104122   -1.2791735189    4.4078565786
H        3.1783849776   -2.3505696576    4.7432992807
H        4.8243026160   -2.9818528308    4.8038651123
H        3.7156844106   -3.7121367974    2.7285432094
H        6.0456259020   -2.0981574674    2.8900370282
H        6.0433897111   -2.7952900719    0.4554456838
23   
Generated by ForceBalance from scan.xyz: Frame 4 of 24
C        2.0063003573   -1.2679194958   -0.1166722147
C        1.4797774974   -0.1083344807    0.4475864581
C        2.6632590557   -0.6421067056    2.5138202752
C        3.1820426649   -1.8231750580    1.9751051138
C        2.8195099052   -2.1081787516    0.6426662574
C        1.8264532566    0.1772249122    1.7610499481
C        4.2211956203   -2.2947248785    4.2688600215
C        4.1063005354   -2.7143343254    2.8015230996
N        5.4915104834   -2.8320554218    2.2177938935
N        3.3012099385   -3.3141327425   -0.0497577725
O        3.5702187122   -3.2072010095   -1.2528908584
O        3.3884572079   -4.3661234579    0.5910293562
O        5.6839356980   -1.9335962424    1.1022220695
F        1.3420262789    1.3007847477    2.3386215077
H        1.7893189486   -1.5323466762   -1.1452229713
H        0.8289349051    0.5573905268   -0.1092929367
H        2.9012437165   -0.3304318351    3.5230035400
H        4.6548890072   -1.2952542290    4.3800269432
H        3.2493139523   -2.3171903154    4.7707079399
H        4.8715173702   -3.0025550077    4.7935933899
H        3.6834339617   -3.7196732516    2.7677938074
H        6.1291100509   -2.4413236930    2.9112300538
H        5.9871755136   -2.5277772075    0.3956354163
23   
Generated by ForceBalance from scan.xyz: Frame 5 of 24
C        1.9378049987   -1.3106144698   -0.1314062010
C        1.4137710753   -0.1252677320    0.3849718277
C        2.5647986315   -0.5800167119    2.4912374033
C        3.0766574251   -1.7812274830    1.9965114400
C        2.7260535216   -2.1197803540    0.6801198179
C        1.7413137521    0.2097971800    1.6930049562
C        4.1579947094   -2.2664215715    4.2836683148
C        4.0125979046   -2.6553179875    2.8106266532
N        5.3469079944   -2.7888994658    2.1330879385
N        3.2254777406   -3.3682250196    0.0762439333
O        3.8868858650   -3.2624445747   -0.9648511070
O        2.9371438938   -4.4320283045    0.6271829934
O        5.6211158157   -1.6655262710    1.2681323731
F        1.2532446661    1.3596838941    2.2144897018
H        1.7308669991   -1.6114776192   -1.1532112421
H        0.7773222455    0.5250037250   -0.2057968612
H        2.8056657194   -0.2334442745    3.4891899975
H        4.6159983131   -1.2788082174    4.4054139558
H        3.1911889866   -2.2723994300    4.7970069467
H        4.7971116285   -2.9986229209    4.7876992577
H        3.5898441885   -3.6651671474    2.7887120419
H        6.0699644879   -2.7093705393    2.8468401086
H        5.6995970617   -2.0811871791    0.3924648311
23   
Generated by ForceBalance from scan.xyz: Frame 6 of 24
C        1.9486463009   -1.3037390265   -0.1366812808
C        1.4087445235   -0.1276349206    0.3845943816
C        2.5387927623   -0.5922057326    2.4999921129
C        3.0663395002   -1.7842843321    1.9996172275
C        2.7359871634   -2.1130406870    0.6761247591
C        1.7178195633    0.1978570630    1.6996684059
C        4.2177540118   -2.2257142180    4.2691577311
C        4.0005543229   -2.6576846311    2.8155210007
N        5.2696600800   -2.8669035371    2.0653382962
N        3.2442190785   -3.3566207607    0.0681707719
O        3.9245838577   -3.2395448580   -0.9583942851
O        2.9314377517   -4.4243116708    0.5967681961
O        5.6903982245   -1.6416134292    1.4255940854
F        1.2147512093    1.3393208245    2.2254363895
H        1.7546131237   -1.5977605735   -1.1630689577
H        0.7740506510    0.5229249378   -0.2077603936
H        2.7686042314   -0.2523276382    3.5027948313
H        4.7213133469   -1.2555580428    4.3365090143
H        3.2730531553   -2.1722444171    4.8199806687
H        4.8448635714   -2.9680649548    4.7730408484
H        3.5463526602   -3.6558163464    2.8455672686
H        6.0146940352   -3.0623215016    2.7333751775
H        5.7076426688   -1.8906320760    0.4856698980
23   
Generated by ForceBalance from scan.xyz: Frame 7 of 24
C        1.8746149783   -1.3626534026   -0.1566016886
C        1.3484591133   -0.1702298643    0.3391108406
C        2.4945997464   -0.5910347750    2.4539689595
C        3.0089393959   -1.7999792616    1.9801013649
C        2.6668624600   -2.1605110495    0.6659787162
C        1.6721137732    0.1857169489    1.6429398325
C        4.1735985886   -2.1824184376    4.2563215111
C        3.9609493298   -2.6433947301    2.8102983042
N        5.2166211033   -2.8133937780    2.0462349165
N        3.1360761016   -3.4292154471    0.0787118349
O        3.6594535440   -3.3683237641   -1.0384499067
O        2.9343877548   -4.4678695262    0.7126590175
O        5.7361853226   -1.5087390689    1.6949708223
F        1.1834062088    1.3437648106    2.1444330171
H        1.6664274595   -1.6829578906   -1.1719330534
H        0.7121251414    0.4694034998   -0.2633801243
H        2.7388865507   -0.2276707947    3.4449055134
H        4.6748602477   -1.2107264107    4.3033792955
H        3.2276769314   -2.1200313374    4.8040368620
H        4.8033644897   -2.9126993349    4.7742534681
H        3.5436146402   -3.6560909046    2.8480175910
H        5.9257471552   -3.2027307656    2.6683697572
H        5.7836565900   -1.5575534775    0.7261810562
23   
Generated by ForceBalance from scan.xyz: Frame 8 of 24
C        1.8104510552   -1.3771292882   -0.1452901915
C        1.3024318799   -0.1735354584    0.3414305515
C        2.4753982890   -0.5805806929    2.4439078442
C        2.9731050958   -1.8006679854    1.9799354468
C        2.6098197777   -2.1738924330    0.6728870955
C        1.6487730246    0.1949361965    1.6355148283
C        4.1683476023   -2.1378634275    4.2410648355
C        3.9407617723   -2.6347361349    2.8092822896
N        5.1812902569   -2.7859910297    2.0235747901
N        3.0468422965   -3.4552941786    0.0879577266
O        3.4534598712   -3.4318844359   -1.0773679064
O        2.9308221919   -4.4749579791    0.7739647286
O        5.8324957853   -1.4946678556    1.9463149587
F        1.1789589047    1.3635266029    2.1301250341
H        1.5833316683   -1.7094005636   -1.1523642467
H        0.6627949651    0.4638789765   -0.2599492635
H        2.7348237361   -0.2074999010    3.4271832433
H        4.6539862948   -1.1589506853    4.2567727033
H        3.2285636574   -2.0809744764    4.7994345779
H        4.8199153365   -2.8442500201    4.7655175867
H        3.5377335681   -3.6510394603    2.8597511490
H        5.8343585783   -3.3552821863    2.5642898543
H        5.9070312601   -1.3537506611    0.9885669363
23   
Generated by ForceBalance from scan.xyz: Frame 9 of 24
C        1.8056381534   -1.4062970005   -0.1240564670
C        1.2832765404   -0.2067642444    0.3580327020
C        2.4684279326   -0.5864881815    2.4584250479
C        2.9830430399   -1.8020505556    1.9994901827
C        2.6200718941   -2.1871442686    0.6943390103
C        1.6292403395    0.1741682694    1.6480569741
C        4.2078736793   -2.0747839945    4.2423191649
C        3.9662536572   -2.6225430237    2.8322106771
N        5.1948221224   -2.7803704820    2.0241649336
N        3.0722425014   -3.4642332958    0.1117511332
O        3.4341593573   -3.4469137401   -1.0675777985
O        3.0140792339   -4.4777571667    0.8156669083
O        6.0088551280   -1.5937479196    2.1751093231
F        1.1457598320    1.3391011737    2.1383758825
H        1.5791035441   -1.7472821278   -1.1282387604
H        0.6326488944    0.4181805473   -0.2446071204
H        2.7204746307   -0.2054756667    3.4404329729
H        4.6634818892   -1.0834556539    4.2197570791
H        3.2744523628   -2.0323876509    4.8120461570
H        4.8912884442   -2.7422556090    4.7770667688
H        3.5652139414   -3.6365941295    2.9096302829
H        5.7620056835   -3.5102781667    2.4581873733
H        6.1226306437   -1.2964212971    1.2578057326
23   
Generated by ForceBalance from scan.xyz: Frame 10 of 24
C        1.7800258278   -1.4018198403   -0.1395804564
C        1.2368378296   -0.2158082074    0.3522624342
C        2.4289508309   -0.5963383986    2.4491086751
C        2.9687127256   -1.7971582983    1.9795609059
C        2.6098563438   -2.1762169276    0.6701379416
C        1.5768293900    0.1577536804    1.6457333102
C        4.2321112824   -2.0226432798    4.1976877576
C        3.9666481904   -2.6103779853    2.8088618003
N        5.1850383700   -2.7882312635    1.9767957285
N        3.0797008014   -3.4398354950    0.0732710592
O        3.3827807950   -3.4214896110   -1.1224602851
O        3.0954381233   -4.4507721189    0.7844250391
O        6.1675038796   -1.7878218592    2.3259912963
F        1.0733823516    1.3087133379    2.1485252487
H        1.5580739442   -1.7386848219   -1.1459987395
H        0.5751679953    0.4031230486   -0.2445439314
H        2.6696373319   -0.2202815787    3.4357917043
H        4.6551748633   -1.0190964592    4.1440517845
H        3.3100156396   -1.9989886234    4.7863680971
H        4.9508519459   -2.6532932134    4.7294114536
H        3.5531101870   -3.6148133894    2.9198119183
H        5.6325546221   -3.6576706091    2.2676144423
H        6.3342169553   -1.3475423089    1.4768212660
23   
Generated by ForceBalance from scan.xyz: Frame 11 of 24
C        1.7581665684   -1.4101842554   -0.1401434478
C        1.1908575025   -0.2388126535    0.3579168175
C        2.4052515649   -0.6003621282    2.4450514857
C        2.9725944612   -1.7859669668    1.9683410993
C        2.6131945722   -2.1689887455    0.6592900618
C        1.5315651241    0.1378461264    1.6502180800
C        4.2658348753   -1.9645526841    4.1714748055
C        3.9856846926   -2.5809440599    2.7993094199
N        5.2055439522   -2.7642842579    1.9545779940
N        3.1070498806   -3.4172536814    0.0508740502
O        3.3296343477   -3.4079747850   -1.1623881503
O        3.2229766119   -4.4152025344    0.7730151204
O        6.3144646511   -2.0049549459    2.4809116043
F        1.0054856193    1.2748240120    2.1610563188
H        1.5364013362   -1.7495096455   -1.1455151829
H        0.5106255414    0.3660559513   -0.2323571121
H        2.6409647334   -0.2225109856    3.4321952004
H        4.6749520388   -0.9560216829    4.0986211505
H        3.3481765404   -1.9412853747    4.7669115817
H        4.9978938021   -2.5751995948    4.7055093488
H        3.5647585581   -3.5770098788    2.9467390846
H        5.5169430581   -3.7275805847    2.0676012899
H        6.5518511302   -1.4289285461    1.7364225321
23   
Generated by ForceBalance from scan.xyz: Frame 12 of 24
C        1.8654120082   -1.1422189288   -0.1396787933
C        0.8376607480   -0.4166411873    0.4567535500
C        1.7839604599   -0.9631939099    2.6367335929
C        2.8367697909   -1.6787730372    2.0524798401
C        2.8525825522   -1.7357241190    0.6502806699
C        0.8256437522   -0.3399192325    1.8458971564
C        4.9518466134   -1.4331609143    3.4272193068
C        3.8263846988   -2.3791466761    2.9835111287
N        4.2923122835   -3.6563456239    2.3804104302
N        3.9291069082   -2.4093778702   -0.0911309894
O        5.0989314770   -2.1131073156    0.2000219209
O        3.6080000397   -3.1648783961   -1.0076426188
O        5.7225109391   -3.7566994699    2.3301876275
F       -0.1685663329    0.3465355961    2.4543724570
H        1.9178386055   -1.2447930427   -1.2182921072
H        0.0635990901    0.0685781641   -0.1283062134
H        1.6930392787   -0.9031874500    3.7177793006
H        5.5508639176   -1.1114422485    2.5747860959
H        4.5116225208   -0.5496748510    3.8993498090
H        5.6058597169   -1.9325287495    4.1446395678
H        3.2464583756   -2.6322292330    3.8799915725
H        4.0368546850   -4.4273921107    2.9908990111
H        5.9196483373   -3.5404727734    1.3995873219
23   
Generated by ForceBalance from scan.xyz: Frame 13 of 24
C        1.8979399998   -1.1071065161   -0.1289785857
C        0.8427455675   -0.4209249121    0.4678967582
C        1.7588295849   -1.0036510473    2.6514878044
C        2.8383506808   -1.6757667720    2.0666793312
C        2.8832392152   -1.6998339643    0.6627035921
C        0.8004409779   -0.3830685791    1.8577312951
C        5.0115844366   -1.4096937030    3.3203498737
C        3.8547437916   -2.3594156396    2.9760048482
N        4.2766105013   -3.6290258770    2.3244471525
N        3.9800732415   -2.3489548793   -0.0791205448
O        5.1453118672   -2.0527582560    0.2213225810
O        3.6673565008   -3.0926013747   -1.0089926764
O        5.6837098505   -3.8728293258    2.4520924979
F       -0.2222054282    0.2627885679    2.4637635178
H        1.9692107911   -1.1816714660   -1.2087953116
H        0.0684937710    0.0616959050   -0.1191242092
H        1.6499837710   -0.9728004939    3.7320277882
H        5.5595388114   -1.1152044323    2.4257689955
H        4.5996320962   -0.5113863180    3.7902011683
H        5.7010305916   -1.8898280656    4.0168048564
H        3.3311536413   -2.5846673757    3.9144353488
H        3.8617768133   -4.4131598794    2.8217117842
H        6.0114644680   -3.6621512301    1.5583473912
23   
Generated by ForceBalance from scan.xyz: Frame 14 of 24
C        1.9073516667   -1.0814092788   -0.1350088328
C        0.8317257316   -0.4374909992    0.4730613617
C        1.7603499369   -1.0342730333    2.6462242183
C        2.8615548541   -1.6608978826    2.0501437936
C        2.9094807269   -1.6590346028    0.6458339268
C        0.7852820413   -0.4267202046    1.8630961021
C        5.0750191749   -1.3894677643    3.2517309312
C        3.8973418998   -2.3261476046    2.9476293614
N        4.3002263955   -3.5929631683    2.2880431775
N        4.0246079364   -2.2646280266   -0.1097582844
O        5.1752732234   -1.9003859670    0.1550807386
O        3.7256776378   -3.0485190308   -1.0121715167
O        5.6225996174   -3.9992561935    2.6717958396
F       -0.2567886480    0.1778009690    2.4791426661
H        1.9801056142   -1.1349910800   -1.2160720880
H        0.0442905380    0.0326392987   -0.1065699718
H        1.6504289306   -1.0269602940    3.7269288503
H        5.6265642115   -1.1380578618    2.3462566586
H        4.6840193756   -0.4662165471    3.6900682432
H        5.7513243357   -1.8603787041    3.9666535985
H        3.4007291242   -2.5305356431    3.9071694682
H        3.7105297027   -4.3466503052    2.6359002767
H        6.1208430626   -3.8888893080    1.8436752850
23   
Generated by ForceBalance from scan.xyz: Frame 15 of 24
C        1.7344019491   -1.0521385886   -0.1898267915
C        0.6893488024   -0.4726508897    0.5209875255
C        1.8812199116   -0.9706612059    2.5900628432
C        2.9449002951   -1.5603350594    1.8908599449
C        2.8257660209   -1.6016455900    0.4901037028
C        0.7875278155   -0.4511743734    1.9091592348
C        3.8098505846   -3.3052180151    3.5095186336
C        4.1479052567   -2.0598225309    2.6756678595
N        4.6870542692   -0.9080087129    3.4444385623
N        3.8353667587   -2.2589317643   -0.3556824523
O        4.0675576616   -1.7560087910   -1.4598946083
O        4.3642246279   -3.2933008062    0.0698089399
O        5.6834128129   -1.4142364177    4.3643964781
F       -0.2176400541    0.0971163411    2.6267823982
H        1.7123895141   -1.0973089680   -1.2727047587
H       -0.1796064786   -0.0537062108    0.0246207325
H        1.8824860099   -0.9151033413    3.6741393858
H        3.0001148297   -3.1077109814    4.2215028499
H        3.4961389700   -4.1158768399    2.8460387283
H        4.6914485497   -3.6239178320    4.0677410532
H        4.9400856599   -2.3363604137    1.9835754543
H        3.9640577790   -0.5684694824    4.0804264895
H        6.4832359978   -0.9345033458    4.0938074496
23   
Generated by ForceBalance from scan.xyz: Frame 16 of 24
C        1.6963977217   -1.1046540823   -0.1711060862
C        0.6815210151   -0.4519251856    0.5176597536
C        1.9231442505   -0.8089180018    2.5872362443
C        2.9524095760   -1.4823653740    1.9132786079
C        2.7974890510   -1.6235091939    0.5199378659
C        0.8220588320   -0.3204606322    1.8960949183
C        3.8523377932   -3.3526250881    3.3531815547
C        4.1462987018   -1.9884231177    2.7084346580
N        4.5504701241   -0.9426663614    3.6792575963
N        3.7855463952   -2.3347789259   -0.3069379426
O        3.9084996816   -1.9768137470   -1.4834097207
O        4.4193905734   -3.2645799573    0.2078528091
O        5.7540433318   -1.4209117950    4.3297663680
F       -0.1476778805    0.3105674248    2.5940291572
H        1.6471738676   -1.2291616462   -1.2464337718
H       -0.1923403240   -0.0540461117    0.0127089900
H        1.9585264217   -0.6493953356    3.6591236762
H        2.9808977193   -3.2874516752    4.0159965703
H        3.6492432219   -4.1026348311    2.5856842317
H        4.7173764182   -3.6711823870    3.9393984377
H        5.0003326148   -2.0986741823    2.0430840591
H        3.8856560206   -0.9411555929    4.4547479369
H        6.3984282132   -0.7271710934    4.1141604279
23   
Generated by ForceBalance from scan.xyz: Frame 17 of 24
C        1.6846949035   -1.1541105149   -0.1571468732
C        0.6907683832   -0.4633980922    0.5237925976
C        1.9633098220   -0.7606663412    2.5838083627
C        2.9651929207   -1.4838470061    1.9207812529
C        2.7913054432   -1.6656832196    0.5329742366
C        0.8591479166   -0.2796960165    1.8934965799
C        3.8440839708   -3.4094764941    3.2892702607
C        4.1419530791   -2.0064087433    2.7340375748
N        4.4701685462   -1.0275701864    3.7989362772
N        3.7704961356   -2.3910166189   -0.2924502406
O        3.8151202562   -2.1198025742   -1.4976922132
O        4.4857087972   -3.2415575828    0.2521852843
O        5.8175185522   -1.3245914949    4.2405518778
F       -0.0853815501    0.3991576872    2.5812747585
H        1.6182809675   -1.3111991839   -1.2269725839
H       -0.1850744804   -0.0701856081    0.0186106682
H        2.0377684179   -0.5463237160    3.6435469437
H        2.9484938567   -3.3855031567    3.9219554514
H        3.6799623913   -4.1263298637    2.4827379952
H        4.6924792965   -3.7474248280    3.8914209648
H        5.0274073369   -2.0528396382    2.1037453860
H        3.9215254687   -1.2550694695    4.6301464899
H        6.2850328530   -0.4923494400    4.0630061414
23   
Generated by ForceBalance from scan.xyz: Frame 18 of 24
C        1.7167992942   -1.1206435675   -0.1561531952
C        0.7287775425   -0.4199864697    0.5227976654
C        1.9838482873   -0.7435929533    2.5898824098
C        2.9774024523   -1.4792651324    1.9290385943
C        2.8118796121   -1.6517787817    0.5386733776
C        0.8910425363   -0.2448488697    1.8948501829
C        3.8113547914   -3.4502655895    3.2551590245
C        4.1335020165   -2.0309889779    2.7571094751
N        4.4323066992   -1.0986107381    3.8735604791
N        3.7898752641   -2.3808750952   -0.2843342529
O        3.8242338747   -2.1257371990   -1.4934986337
O        4.5161350248   -3.2190542991    0.2655543062
O        5.8564684559   -1.1523007084    4.1254139800
F       -0.0485993140    0.4454928804    2.5783313172
H        1.6557996485   -1.2696378605   -1.2273861621
H       -0.1378570274   -0.0111969620    0.0140652283
H        2.0707435852   -0.5314167469    3.6491695023
H        2.9267262508   -3.4333833298    3.9033575734
H        3.6160701371   -4.1282421983    2.4226487086
H        4.6604156842   -3.8372869145    3.8272209466
H        5.0359091475   -2.0623975961    2.1507053256
H        4.0467105696   -1.4878761757    4.7348022062
H        6.1330629978   -0.2334001994    3.9779071825
23   
Generated by ForceBalance from scan.xyz: Frame 19 of 24
C        1.7263589455   -1.1813347718   -0.1413988832
C        0.7413359287   -0.4602400221    0.5203391567
C        1.9769582705   -0.7744029559    2.6016137241
C        2.9663011549   -1.5294359169    1.9575412476
C        2.8092408022   -1.7180585344    0.5683651869
C        0.8953839732   -0.2720542085    1.8918623914
C        3.7805160862   -3.4966423761    3.3109412760
C        4.1109324058   -2.0828275378    2.8038797999
N        4.4067170965   -1.1565032734    3.9260858737
N        3.7830848437   -2.4720442065   -0.2362885162
O        3.8305225613   -2.2354444178   -1.4487629944
O        4.4959287609   -3.3095540755    0.3324435226
O        5.8344637999   -0.9301471555    3.9731306245
F       -0.0423445001    0.4371213373    2.5588801254
H        1.6721518052   -1.3423683654   -1.2112350398
H       -0.1158106987   -0.0464254232   -0.0003810127
H        2.0693431342   -0.5526239068    3.6585796240
H        2.9234042575   -3.4678641909    3.9948217220
H        3.5366246089   -4.1647426475    2.4835681099
H        4.6441264784   -3.9068830088    3.8439421143
H        5.0176635584   -2.1327375704    2.2040194956
H        4.2374932982   -1.6491834649    4.8027320756
H        5.9067102295    0.0310333523    3.8560162454
23   
Generated by ForceBalance from scan.xyz: Frame 20 of 24
C        1.7530665352   -1.1657191237   -0.1371159044
C        0.7791369998   -0.4283784443    0.5234115690
C        1.9886282320   -0.7840176204    2.6131353626
C        2.9670586718   -1.5537253687    1.9702841949
C        2.8175990418   -1.7302919742    0.5784164965
C        0.9240229160   -0.2542760468    1.8978137276
C        3.7546651124   -3.5399680868    3.3276403400
C        4.0974340319   -2.1291857291    2.8216934112
N        4.3936782546   -1.2269543590    3.9598994109
N        3.7793712541   -2.5026631497   -0.2230501111
O        3.8431906036   -2.2589023632   -1.4333189319
O        4.4644669710   -3.3633944062    0.3453284481
O        5.7444548880   -0.7294954558    3.8184819113
F       -0.0056037357    0.4686349707    2.5617091162
H        1.7038766966   -1.3179861171   -1.2085325117
H       -0.0642395107    0.0080382251   -0.0013186032
H        2.0820456418   -0.5788485378    3.6734443012
H        2.9154411173   -3.5063013592    4.0328858152
H        3.4803142916   -4.1932058030    2.4984515411
H        4.6245870093   -3.9719831306    3.8325540189
H        5.0052371860   -2.1960879209    2.2226601735
H        4.4613492347   -1.7969538667    4.8022970603
H        5.6232898124    0.2334033850    3.7838949555
23   
Generated by ForceBalance from scan.xyz: Frame 21 of 24
C        1.7921354349   -1.1232790066   -0.1246181936
C        0.8208423547   -0.3826343629    0.5370659178
C        1.9978348958   -0.7949595138    2.6350316591
C        2.9727800488   -1.5667418529    1.9896073788
C        2.8375284455   -1.7171177159    0.5943636476
C        0.9499987279   -0.2366581993    1.9163425110
C        3.7223221529   -3.5618351145    3.3635605678
C        4.0915037252   -2.1653348207    2.8392499430
N        4.3967922919   -1.2758722958    3.9788020525
N        3.7928356972   -2.5005513313   -0.2030556820
O        3.9135337741   -2.2140361018   -1.3993863140
O        4.4124154226   -3.4153613604    0.3560916913
O        5.6005758422   -0.5365864411    3.6685271568
F        0.0216716556    0.4870494730    2.5817766670
H        1.7538725299   -1.2563938514   -1.1991783398
H       -0.0090902819    0.0761217040    0.0099296148
H        2.0812815525   -0.6167359652    3.7012055458
H        2.8919550779   -3.5045008027    4.0768103108
H        3.4269871462   -4.2114417134    2.5390804970
H        4.5865600325   -4.0132447123    3.8618558723
H        4.9945610294   -2.2608707376    2.2342314277
H        4.6987637602   -1.8664232549    4.7535032843
H        5.3172092106    0.3901217624    3.7324099757
23   
Generated by ForceBalance from scan.xyz: Frame 22 of 24
C        1.8165701141   -1.1031724026   -0.1154757561
C        0.8602743651   -0.3514638585    0.5557410186
C        2.0290839725   -0.8127312407    2.6481493219
C        2.9900755641   -1.5926527243    1.9916287873
C        2.8507557009   -1.7248249143    0.5957109851
C        0.9919536691   -0.2259258970    1.9367572230
C        3.7018392723   -3.5914853304    3.3761731470
C        4.1036718381   -2.2128718966    2.8302837743
N        4.4196109915   -1.3310462266    3.9672414930
N        3.7876515195   -2.5216102846   -0.2097995666
O        3.9219411213   -2.2188671068   -1.4004951409
O        4.3764533580   -3.4636840207    0.3372632561
O        5.4157614417   -0.3799705177    3.5229420549
F        0.0771397770    0.5060385981    2.6118826049
H        1.7744189806   -1.2240461980   -1.1913794985
H        0.0391152028    0.1294447271    0.0346482133
H        2.1119625259   -0.6573550044    3.7181445386
H        2.8692737579   -3.5037862814    4.0824240692
H        3.4010209547   -4.2453003682    2.5571277134
H        4.5509936971   -4.0569757303    3.8880687820
H        4.9975011368   -2.3330821199    2.2140298364
H        4.9338732542   -1.8916658021    4.6476255078
H        4.9970281531    0.4793290452    3.6942995213
23   
Generated by ForceBalance from scan.xyz: Frame 23 of 24
C        1.8564707320   -1.0920416671   -0.1138145848
C        0.9092980368   -0.3366656407    0.5661245033
C        2.0665907999   -0.8437386105    2.6542966970
C        3.0206770656   -1.6235089028    1.9871722439
C        2.8804223531   -1.7370345782    0.5911097276
C        1.0387160934   -0.2339219361    1.9494263289
C        3.6638074430   -3.6099014150    3.3960766106
C        4.1275198981   -2.2650275076    2.8169581343
N        4.4664521415   -1.3772593546    3.9408518012
N        3.8012445102   -2.5458762833   -0.2203081540
O        3.9670479677   -2.2170485848   -1.3998924454
O        4.3435844547   -3.5241674913    0.3113254338
O        5.2267209120   -0.2682077743    3.4051085084
F        0.1305321594    0.4983375223    2.6335201444
H        1.8137061182   -1.1993980964   -1.1912417326
H        0.0953112231    0.1620333201    0.0505654765
H        2.1428672829   -0.7111500745    3.7282030821
H        2.8086331271   -3.4689584231    4.0639133254
H        3.3783280934   -4.2827027996    2.5866144984
H        4.4744797830   -4.0841505674    3.9605883782
H        5.0069874283   -2.4271169733    2.1889784543
H        5.1490766811   -1.8692962997    4.5191628856
H        4.7095984953    0.5075004707    3.6765449874
23   
Generated by ForceBalance from scan.xyz: Frame 24 of 24
C        1.8938366132   -1.0648056995   -0.0965119469
C        0.9505106961   -0.3188880187    0.5983402540
C        2.1087942268   -0.8682051408    2.6744950074
C        3.0636788248   -1.6332567083    1.9903692667
C        2.9181120695   -1.7245615799    0.5948388062
C        1.0814961961   -0.2432825163    1.9836606729
C        3.6290142246   -3.5937594104    3.4268020084
C        4.1675815921   -2.2950546404    2.8069329925
N        4.5530978319   -1.3966564592    3.9116207199
N        3.8290456495   -2.5301982240   -0.2301640597
O        4.0081503465   -2.1748926886   -1.4000076737
O        4.3470391339   -3.5324537522    0.2811752250
O        5.0617238356   -0.1703494848    3.3359781322
F        0.1745186216    0.4759592937    2.6834013685
H        1.8473228862   -1.1551349487   -1.1753811496
H        0.1364008487    0.1905205267    0.0936148245
H        2.1779765787   -0.7627423132    3.7522091491
H        2.7606076420   -3.3848581799    4.0568724402
H        3.3438272241   -4.2896120044    2.6359484847
H        4.3962478481   -4.0771378661    4.0425769194
H        5.0219503684   -2.5131778279    2.1623977349
H        5.3691241731   -1.8048469279    4.3694299304
H        4.4893086719    0.5098931869    3.7255774222
