27

C     -1.96359   -0.84918   -0.47909
C     -0.60347   -0.84446   -0.16937
C     -2.65228   -2.07321   -0.63060
C      1.33619   -3.88083    0.29329
C      0.09927   -4.41259    0.00943
C     -0.77695   -3.28620   -0.20051
C     -0.00507   -2.09711   -0.02917
C     -0.28416   -5.85897   -0.08629
C      0.54173   -6.24654   -2.44236
C     -0.65878   -6.31309   -1.51008
N     -2.09113   -3.27720   -0.49915
N      1.28430   -2.48957    0.26760
N     -1.12545   -7.70853   -1.45397
O      0.10125   -6.64050   -3.75274
H     -2.50295    0.08493   -0.60578
H     -0.05091    0.08423   -0.04639
H     -3.71430   -2.06216   -0.87144
H      2.26560   -4.38908    0.51633
H      0.52203   -6.49935    0.28847
H     -1.15391   -6.03869    0.55715
H      1.32001   -6.93178   -2.07448
H      0.94122   -5.22462   -2.46049
H     -1.42170   -5.62321   -1.90095
H      2.05681   -1.87376    0.47545
H     -1.28442   -8.02693   -2.40945
H     -2.02889   -7.74012   -0.98340
H      0.87679   -6.69787   -4.33039
