29

C      1.41318    5.16157    3.54865
C      0.12249    5.66618    3.37528
C      1.79590    3.99752    2.88036
C     -0.77744    5.00603    2.53499
C      0.91744    3.31861    2.02270
C     -0.37381    3.84854    1.86974
C      0.49320    0.22864    2.62635
C     -0.00841   -1.37336    4.21682
C      1.06483   -0.39708    4.73104
C      1.65340    2.29386   -0.20813
C      1.43545    2.08898    1.29381
N     -0.42435   -0.67740    2.98630
N      0.54587    0.90739    1.49857
O      1.42523    0.40269    3.54682
Cl    -1.57055    3.07379    0.81867
H      2.11781    5.66919    4.20033
H     -0.19010    6.57058    3.88874
H      2.80070    3.60530    3.01896
H     -1.78303    5.38742    2.39012
H      0.39562   -2.36274    3.98461
H     -0.84507   -1.47121    4.90970
H      0.68576    0.30222    5.47722
H      1.97617   -0.87691    5.08162
H      0.72469    2.54615   -0.72456
H      2.08383    1.39538   -0.65970
H      2.35092    3.12176   -0.35185
H      2.39009    1.81552    1.74434
H     -1.14382   -1.02176    2.36138
H     -0.23668    0.81357    0.85854
