47

C      6.91883   -0.59402    2.41792
C      6.20864   -1.65885    1.84545
C      6.34987    0.68019    2.41730
C      4.95141   -1.45014    1.28311
C      5.08618    0.90615    1.85533
C     -0.44575    3.14458    3.53094
C     -1.93536    1.66828    3.36872
C      4.38387   -0.16531    1.28607
C     -0.85570   -1.71079   -1.20702
C     -1.48548    0.59025   -1.98030
C     -3.17241   -0.85686   -0.85804
C      1.14720    1.05590    0.03776
C      0.25236    0.11541    0.85503
C     -1.90721    1.45794    0.83916
C      2.51246    1.22379    0.68678
C     -1.68087   -0.45539   -0.86021
C     -1.26435    0.08014    0.56587
N     -1.27623    2.36768    4.28613
N     -0.55344    2.97012    2.21727
N     -1.52728    2.01630    2.12680
O     -1.85283   -0.77916    1.57228
O      3.14560   -0.06067    0.71032
H      7.89897   -0.75878    2.85638
H      6.63764   -2.65774    1.83747
H      6.88805    1.51584    2.85772
H      4.39018   -2.26551    0.83533
H      4.66788    1.90598    1.86899
H      0.24856    3.85996    3.95317
H     -2.68811    0.91288    3.54517
H     -0.92944   -2.47180   -0.42229
H     -1.23670   -2.16148   -2.12929
H      0.20232   -1.48366   -1.36616
H     -2.18797    1.42439   -1.88971
H     -1.67850    0.11842   -2.94971
H     -0.47555    1.00098   -2.01486
H     -3.82995   -0.01014   -0.63659
H     -3.44962   -1.22863   -1.85034
H     -3.37579   -1.63888   -0.12457
H      0.70087    2.05164   -0.03197
H      1.29372    0.67933   -0.97848
H      0.64771   -0.90163    0.77278
H      0.35180    0.38964    1.91045
H     -1.61463    2.19057    0.09076
H     -2.99351    1.35682    0.81874
H      3.12793    1.92961    0.11360
H      2.40159    1.60826    1.70901
H     -1.20958   -1.46745    1.80055
