18   
Generated by ForceBalance from scan.xyz: Frame 1 of 24
C        1.2468766771   -0.8842208097    1.9295271941
C        0.7849705465   -1.6157706311    0.6760561196
C        3.2328459694    1.9274247421    0.3368143394
C        2.3033897550    1.0528081880    2.9429061286
C        2.0798014762    0.9294512295    0.4511150103
N        2.0154182939    0.2512242672    1.7535900288
O        0.9619316534   -1.3206822739    3.0462321131
H        1.6305856186   -1.9323309537    0.0570565997
H        0.2305560582   -2.4970184980    0.9977367376
H        0.1332453927   -0.9906554974    0.0570876306
H        4.1959289002    1.4463054646    0.5359119944
H        3.2573101449    2.3272418738   -0.6818905923
H        3.1208832130    2.7725216494    1.0204432940
H        3.3480853738    1.3732229988    2.9492798698
H        1.6603703090    1.9428127277    2.9874500153
H        2.1102406792    0.4383560237    3.8200115768
H        1.1331796860    1.4575910267    0.2531674527
H        2.1949787077    0.1762114112   -0.3295565604
18   
Generated by ForceBalance from scan.xyz: Frame 2 of 24
C        1.2818854452   -0.8901850684    1.8941219454
C        0.8507929632   -1.6264841635    0.6316156446
C        3.2834817576    1.8533995262    0.2968612484
C        2.2177562214    1.0965277440    2.9435908889
C        2.0046126107    1.0287847587    0.4652264676
N        1.9455649931    0.3103839909    1.7413519058
O        1.0585096680   -1.3795676776    3.0031930258
H        1.6989575201   -1.8438302016   -0.0252956131
H        0.3958551835   -2.5659243180    0.9446260785
H        0.1176769101   -1.0516802948    0.0564011716
H        4.1716657961    1.2245079684    0.4178526534
H        3.3057331318    2.2888859977   -0.7072676511
H        3.3436543420    2.6751693853    1.0149185010
H        3.2806862795    1.3447947478    3.0181062973
H        1.6396087691    2.0303581195    2.9320513695
H        1.9273991140    0.5070542634    3.8112303607
H        1.1311551130    1.6940361052    0.3729120373
H        1.9446354038    0.3079103371   -0.3490603895
18   
Generated by ForceBalance from scan.xyz: Frame 3 of 24
C        1.3053617584   -0.8628618343    1.8688186275
C        0.9252604599   -1.6077582669    0.5943819412
C        3.3068063875    1.7807480486    0.2502609639
C        2.1361887675    1.1547989478    2.9556045139
C        1.9386400877    1.1310928712    0.4809631173
N        1.8580307987    0.3925221516    1.7407587354
O        1.1323921754   -1.3913834803    2.9694785876
H        1.7758056677   -1.7238843445   -0.0846226944
H        0.5734111700   -2.5951486417    0.8923284787
H        0.1241525708   -1.0975715456    0.0496527520
H        4.1025937670    1.0289664252    0.2708795361
H        3.3214706600    2.2725830386   -0.7278977857
H        3.5324001836    2.5385839543    1.0053739259
H        3.2102882122    1.3302470794    3.0785523392
H        1.6259512611    2.1255127909    2.9152919053
H        1.7717360638    0.5880578369    3.8107029988
H        1.1601636119    1.9095592397    0.4681449740
H        1.7223037986    0.4549624235   -0.3441164370
18   
Generated by ForceBalance from scan.xyz: Frame 4 of 24
C        1.2644501002   -0.8234999239    1.9102754861
C        0.9392526353   -1.5702778242    0.6216402983
C        3.2828090202    1.6808149989    0.2879294179
C        1.9883670514    1.2122253258    3.0360987810
C        1.8471817706    1.2139069286    0.5552118840
N        1.7073483147    0.4742264771    1.8072705321
O        1.1356742846   -1.3815780474    3.0028150982
H        1.7984880672   -1.6149471682   -0.0550865849
H        0.6561134387   -2.5849460932    0.9005575568
H        0.1066052943   -1.1077070209    0.0818460497
H        3.9669798309    0.8266556868    0.2505009880
H        3.3338925292    2.2070986072   -0.6711083993
H        3.6359420723    2.3657640173    1.0640221842
H        3.0642405620    1.2630397324    3.2409050599
H        1.6010712583    2.2333738064    2.9464032689
H        1.5017613251    0.7065641790    3.8689817910
H        1.1789805692    2.0865021217    0.5868167528
H        1.5080071483    0.5912819589   -0.2708773982
18   
Generated by ForceBalance from scan.xyz: Frame 5 of 24
C        1.2931235295   -0.8089961295    1.9099365641
C        1.0225369299   -1.5449461159    0.6027711324
C        3.2716478305    1.5503121877    0.2573305199
C        1.9048520568    1.2408801756    3.0773391215
C        1.8019938119    1.2669262940    0.5922989365
N        1.6236496375    0.5238136271    1.8370597841
O        1.2090574024   -1.4008657342    2.9888076983
H        1.8751434462   -1.4963453996   -0.0818274650
H        0.8281538610   -2.5874671083    0.8534696463
H        0.1484848648   -1.1385911982    0.0833454093
H        3.8337739200    0.6161362860    0.1554447806
H        3.3461919997    2.1025331738   -0.6856731283
H        3.7506833360    2.1507813895    1.0362709040
H        2.9823956659    1.3194870430    3.2672103956
H        1.4854981019    2.2510490802    3.0175196729
H        1.4484601675    0.7018518261    3.9063467091
H        1.2570186665    2.2158262706    0.6814409877
H        1.3345958877    0.7199103775   -0.2256800943
18   
Generated by ForceBalance from scan.xyz: Frame 6 of 24
C        1.3317062903   -0.7899012167    1.9039720884
C        1.1024094458   -1.5077451422    0.5792404516
C        3.2502131193    1.4164360477    0.2280617771
C        1.8212868275    1.2675893211    3.1126194527
C        1.7713687726    1.3146108674    0.6239284649
N        1.5444963684    0.5689903407    1.8605578094
O        1.2984033666   -1.4114765585    2.9683905574
H        1.9353234973   -1.3720288315   -0.1171390652
H        0.9929792353   -2.5694364181    0.7990845067
H        0.1910905455   -1.1529414836    0.0865183387
H        3.6826894362    0.4233478919    0.0694974081
H        3.3584793467    1.9897343760   -0.6990893846
H        3.8348000789    1.9184398934    1.0049332273
H        2.8987973100    1.3754794201    3.2916772541
H        1.3694164646    2.2642885754    3.0801528827
H        1.3934578700    0.6971984552    3.9357651931
H        1.3568020914    2.3199109044    0.7616622312
H        1.1987963111    0.8567584655   -0.1841101294
18   
Generated by ForceBalance from scan.xyz: Frame 7 of 24
C        1.4346116848   -0.7911881593    1.9128028989
C        1.1861564527   -1.4941757897    0.5837698521
C        3.2407266214    1.3207413830    0.2460451219
C        1.7666644949    1.2674772255    3.1597708697
C        1.7676836633    1.3484446668    0.6770136495
N        1.4848831347    0.5872764276    1.8963092721
O        1.5246587662   -1.4357883575    2.9591065226
H        2.0113120550   -1.3513499808   -0.1199191231
H        1.0824672200   -2.5591045547    0.7908255408
H        0.2714838562   -1.1307674062    0.1046588861
H        3.5735447802    0.3004355480    0.0353998828
H        3.3820531079    1.9187254373   -0.6608597384
H        3.8905715458    1.7312764498    1.0251747873
H        2.8436046517    1.4079884989    3.3215656103
H        1.2797591961    2.2474896293    3.1559827296
H        1.3755298136    0.6673730764    3.9797814374
H        1.4506706669    2.3805672676    0.8553033875
H        1.1390959431    0.9720673191   -0.1344169853
18   
Generated by ForceBalance from scan.xyz: Frame 8 of 24
C        0.8648957208   -0.3441852405    1.7986898530
C       -0.2444861506    0.1026066636    0.8562562448
C        2.6645767540    1.0253437324   -0.3833923667
C        3.0165995769    0.0227197594    2.8587463265
C        2.3244812050    1.5399224852    1.0204929414
N        1.9445154764    0.4943064212    1.9806678330
O        0.7512771696   -1.4087929908    2.4097133472
H       -0.1998442179   -0.4971631303   -0.0578234618
H       -1.1940685802   -0.1240634151    1.3454835722
H       -0.2218518638    1.1586951616    0.5836431354
H        1.7957811152    0.5775523505   -0.8709694556
H        3.0150899778    1.8512860303   -1.0120855836
H        3.4566090935    0.2703946248   -0.3417734423
H        3.8180515475   -0.4705892161    2.2921275349
H        3.4408503453    0.8727545654    3.4019807336
H        2.6049949005   -0.6952572382    3.5656998423
H        3.1920331139    2.0526875580    1.4430521056
H        1.5303667181    2.2917018279    0.9595135632
18   
Generated by ForceBalance from scan.xyz: Frame 9 of 24
C        0.9233556820   -0.3954083729    1.7481154387
C       -0.2100528731    0.0498914161    0.8340756215
C        2.5433414672    1.0371415166   -0.4152160290
C        2.9805813508    0.0575634137    2.9322088367
C        2.3703152412    1.5253984763    1.0280189708
N        1.9391076685    0.5048719798    2.0023872521
O        0.8647182454   -1.4921748339    2.3061056342
H       -0.1885902318   -0.5360262861   -0.0891400667
H       -1.1447904856   -0.1895921756    1.3466146669
H       -0.2005180084    1.1125561131    0.5851887609
H        1.5952025795    0.7614977100   -0.8781596587
H        2.9892533130    1.8345577188   -1.0198445356
H        3.2087499264    0.1681469760   -0.4570758135
H        3.7843372416   -0.4863689250    2.4172042234
H        3.4078737175    0.9292606782    3.4361878409
H        2.5384185071   -0.6095965049    3.6700874616
H        3.3220152255    1.9169592086    1.3923522552
H        1.6682225231    2.3688243008    1.0461367001
18   
Generated by ForceBalance from scan.xyz: Frame 10 of 24
C        0.9695950995   -0.4295044641    1.7358489889
C       -0.1390873004   -0.0321408404    0.7710946524
C        2.4007565291    1.1268672765   -0.4854238360
C        2.9382542765    0.1176529437    3.0273360491
C        2.4903146774    1.4708678554    1.0056760489
N        1.9880185461    0.4703840859    1.9692733981
O        0.8852827409   -1.4902606049    2.3588614960
H        0.0041910713   -0.5197753504   -0.1971496116
H       -1.0718089179   -0.4107165163    1.1937699974
H       -0.2226993091    1.0460818350    0.6194456319
H        1.3883475231    1.1869003169   -0.8823454540
H        3.0138481264    1.8417793497   -1.0446466647
H        2.7912323215    0.1227309262   -0.6823150769
H        3.7867308097   -0.4614010312    2.6379762539
H        3.3168964329    1.0353382190    3.4877340834
H        2.4314524940   -0.4842357754    3.7796160832
H        3.5441651959    1.6174850747    1.2529874702
H        1.9971151675    2.4369158973    1.1851707653
18   
Generated by ForceBalance from scan.xyz: Frame 11 of 24
C        0.9687068229   -0.4634293983    1.7731260583
C       -0.0853599120   -0.1683152278    0.7145724792
C        2.2590099025    1.2552679903   -0.5020384169
C        2.8889909194    0.1676479304    3.0998265722
C        2.6136129237    1.3605465902    0.9819421694
N        2.0313877075    0.3990376593    1.9359867201
O        0.8115427198   -1.4275967187    2.5279196884
H        0.2154922887   -0.5432166162   -0.2667814889
H       -0.9859954112   -0.7033109258    1.0177773162
H       -0.3085844980    0.8972315364    0.6272588457
H        1.2396033456    1.5644408484   -0.7304387561
H        2.9328403989    1.9210903611   -1.0513587881
H        2.4126343408    0.2407156745   -0.8820828182
H        3.7547676934   -0.4582405533    2.8447063611
H        3.2508345265    1.1312194080    3.4737295306
H        2.3176952085   -0.3358667316    3.8773246791
H        3.6990126469    1.2324520847    1.0617646939
H        2.4015244284    2.3818173319    1.3310156137
18   
Generated by ForceBalance from scan.xyz: Frame 12 of 24
C        0.9397850191   -0.1014057546    1.8606851664
C        0.1622450120   -0.2305796595    0.5578804177
C        2.3399701841    1.5683398087   -0.4306332728
C        2.9576176937    0.2510179622    3.1349573897
C        3.0152469529    1.0857932721    0.8514050781
N        2.2559044485    0.3116156133    1.8505523846
O        0.3991346204   -0.4457801600    2.9161468754
H        0.7421969950   -0.7198437383   -0.2271527039
H       -0.7178473916   -0.8329485486    0.7840699402
H       -0.1752530876    0.7390744644    0.1852565014
H        1.4699609942    2.1978844556   -0.2277745663
H        3.0701250155    2.1810478003   -0.9696088263
H        2.0414090075    0.7567624067   -1.0948177191
H        4.0225496178    0.0788748955    2.9491775957
H        2.8458396043    1.1864543106    3.6994972089
H        2.5533478392   -0.5619219912    3.7351863029
H        3.9025701104    0.4976619643    0.5784018912
H        3.3909199659    1.9751906659    1.3749902277
18   
Generated by ForceBalance from scan.xyz: Frame 13 of 24
C        0.9536744284   -0.0692713595    1.8455276585
C        0.2351602844   -0.3018223727    0.5232816878
C        2.3143694951    1.6660965016   -0.3750841925
C        2.9575586058    0.3277160722    3.1386668305
C        3.0505577805    1.0002691882    0.7884249505
N        2.2751987288    0.3222170871    1.8433304945
O        0.3658679242   -0.3162906063    2.9026433579
H        0.8767454914   -0.7645768111   -0.2297527728
H       -0.6042087634   -0.9634975622    0.7399496385
H       -0.1658074528    0.6292907001    0.1153795835
H        1.5293823166    2.3414988494   -0.0215451558
H        3.0442205208    2.2662380211   -0.9285006212
H        1.8769026317    0.9576851561   -1.0777291226
H        4.0061534971    0.0487833830    2.9908595980
H        2.9203601139    1.3191821788    3.6098506404
H        2.4785227829   -0.3876874318    3.8043441434
H        3.7967360598    0.2985407715    0.3876587874
H        3.6177582805    1.7859124510    1.3001831846
18   
Generated by ForceBalance from scan.xyz: Frame 14 of 24
C        0.9558836789   -0.0162150840    1.8174067641
C        0.3132856430   -0.3858711376    0.4876622706
C        2.3326361877    1.7989579129   -0.2350726791
C        2.9129884349    0.4541297476    3.1558493823
C        3.0747814503    0.8580569494    0.7207935369
N        2.3047033152    0.2698420423    1.8356419231
O        0.2913516215   -0.0774422176    2.8542721668
H        1.0269328562   -0.7320098720   -0.2629641700
H       -0.4042721353   -1.1814641133    0.6976444350
H       -0.2463940612    0.4629051268    0.0849729460
H        1.7566406548    2.5484990697    0.3180536865
H        3.0719058020    2.3270936566   -0.8468435248
H        1.6590581141    1.2798811714   -0.9154999171
H        3.9590489070    0.1354809169    3.1146858306
H        2.8729089499    1.5025944508    3.4813167592
H        2.3772939851   -0.1500747136    3.8859267158
H        3.5556087332    0.0573095304    0.1408843802
H        3.8847829580    1.4240988852    1.1863430511
18   
Generated by ForceBalance from scan.xyz: Frame 15 of 24
C        0.9952496533   -0.1004197550    1.7796744490
C        0.3813522835   -0.5273783697    0.4533142541
C        2.3595625338    1.9011948299   -0.0875661938
C        2.9082802360    0.5440521655    3.1085171826
C        3.0642027311    0.7508372806    0.6415909168
N        2.3447438686    0.1914568207    1.8018524264
O        0.3106172733   -0.1145574594    2.8038052177
H        1.1061779798   -0.7261778441   -0.3381544855
H       -0.1954950392   -1.4347831752    0.6471907154
H       -0.3230318927    0.2365750867    0.1122384523
H        2.0791478685    2.6949489420    0.6131508704
H        3.0374329632    2.3314568639   -0.8329598518
H        1.4590044532    1.5743357228   -0.6085976569
H        3.9659480151    0.2658669440    3.1282933473
H        2.8181455387    1.6188874625    3.3176384872
H        2.3740637564    0.0012764913    3.8863745531
H        3.2872855665   -0.0515251019   -0.0733041116
H        4.0290190765    1.0983986122    1.0158974467
18   
Generated by ForceBalance from scan.xyz: Frame 16 of 24
C        0.9956996655   -0.1779820269    1.7686461675
C        0.3926152603   -0.5805943509    0.4297029743
C        2.4230285518    1.9720932341   -0.0243204616
C        2.8597758351    0.6445766975    3.0880247768
C        3.0327195202    0.7181480435    0.6138737791
N        2.3150256481    0.2225035189    1.7966591680
O        0.3151710477   -0.2664793288    2.7927058519
H        1.1150317301   -0.7553498481   -0.3688527153
H       -0.1872159274   -1.4905314483    0.5978041871
H       -0.3081869062    0.1948800297    0.1060769111
H        2.3262687226    2.7772363624    0.7114719200
H        3.0639713326    2.3301327201   -0.8375152455
H        1.4327684873    1.7730909421   -0.4401073508
H        3.9070875780    0.3348835207    3.1591267290
H        2.8039735913    1.7343013419    3.2149313065
H        2.2844159073    0.1765545296    3.8846239244
H        3.1105930276   -0.0795400128   -0.1325233254
H        4.0555515668    0.9303243663    0.9347442484
18   
Generated by ForceBalance from scan.xyz: Frame 17 of 24
C        0.8708824113   -0.2579658922    1.8287255426
C        0.3169419174   -0.7224415740    0.4873491777
C        2.4014478300    2.0818835549    0.1957587651
C        2.6874255427    0.6861488003    3.1288504331
C        2.8514456525    0.6853716139    0.6467533559
N        2.1731241579    0.1970281867    1.8499508903
O        0.1955608529   -0.3459660111    2.8555325182
H        0.9489474067   -1.4976024860    0.0423165702
H       -0.6774886758   -1.1306461929    0.6666631961
H        0.2364298118    0.0970959254   -0.2326857998
H        2.5885450684    2.8283935011    0.9739740074
H        2.9499308527    2.3863029431   -0.7023764151
H        1.3326962323    2.0997991068   -0.0362486827
H        3.7772703844    0.5921769083    3.1340458347
H        2.4202730055    1.7357595050    3.3092744108
H        2.2649613552    0.0877322548    3.9348525797
H        2.7007549768   -0.0319189300   -0.1641341527
H        3.9258561844    0.6898789213    0.8551482751
18   
Generated by ForceBalance from scan.xyz: Frame 18 of 24
C        1.0177131641   -0.4496297851    1.8796527804
C        0.3850714294   -0.9153920338    0.5736322655
C        2.4178617311    2.0550120632    0.1083284798
C        2.8320482250    0.7137267644    3.0257410567
C        2.8294245178    0.6413027270    0.5403206315
N        2.2227878533    0.2104503961    1.7985528808
O        0.4701242917   -0.6850752218    2.9590067992
H        1.0056693443   -1.6693844900    0.0781287665
H       -0.5786683424   -1.3606106630    0.8195107178
H        0.2291286350   -0.0931636852   -0.1309996608
H        2.6919265794    2.7969515501    0.8643764552
H        2.9168717791    2.3278951005   -0.8279059468
H        1.3364258400    2.1174990826   -0.0487917598
H        3.9032138913    0.4834323948    3.0279608537
H        2.7071340786    1.7995763621    3.1236510257
H        2.3524376788    0.2315380572    3.8759498402
H        2.5836657230   -0.0753464121   -0.2450158515
H        3.9173464309    0.5967919297    0.6658967414
18   
Generated by ForceBalance from scan.xyz: Frame 19 of 24
C        1.0776984727   -0.5962409982    1.9082855371
C        0.4455338017   -1.0890843826    0.6117612993
C        2.5588320126    2.0957648042    0.2434861648
C        2.8201350432    0.6747205615    3.0433279209
C        2.8122455591    0.6158947749    0.5567530167
N        2.2104488162    0.1776380671    1.8134442127
O        0.5814505434   -0.8937796514    2.9975722982
H        1.1145297052   -1.7628255221    0.0664000981
H       -0.4586537082   -1.6347139295    0.8804940913
H        0.1785235549   -0.2643558685   -0.0564401032
H        2.9753297400    2.7454638292    1.0188613617
H        3.0265013888    2.3675085922   -0.7089908683
H        1.4853172451    2.2991872006    0.1711882250
H        3.9109425319    0.6270456985    2.9549121863
H        2.5305157090    1.7121471669    3.2511365173
H        2.4911927302    0.0530085650    3.8748006107
H        2.4402765046   -0.0041421224   -0.2580791413
H        3.8933463013    0.4338698939    0.6156070719
18   
Generated by ForceBalance from scan.xyz: Frame 20 of 24
C        1.0760061594   -0.6285570439    1.9087336866
C        0.4518969805   -1.1785840198    0.6312238261
C        2.6800285954    2.1527619932    0.2736049246
C        2.7641165670    0.7466807276    3.0024047055
C        2.7450010692    0.6410333177    0.5199226680
N        2.1373901528    0.2371505826    1.7855366877
O        0.6282917674   -0.9555583303    3.0107016400
H        1.1577646091   -1.7978708352    0.0681845570
H       -0.3965859822   -1.7948862187    0.9274599576
H        0.0978676190   -0.3817279992   -0.0304246189
H        3.2227673066    2.7110332981    1.0416825115
H        3.1300462408    2.3940790297   -0.6952193862
H        1.6418349321    2.5008423099    0.2689784042
H        3.8537951360    0.7323293997    2.8868854987
H        2.4490605147    1.7738919467    3.2205334599
H        2.4750998491    0.1115638045    3.8385707085
H        2.2533151801    0.1180662151   -0.2984933202
H        3.7952813258    0.3154811825    0.5151224769
18   
Generated by ForceBalance from scan.xyz: Frame 21 of 24
C        1.0207356485   -0.5999094596    1.8703247393
C        0.4224391998   -1.2045943659    0.6054802540
C        2.7672903643    2.2085989722    0.2351419167
C        2.6568969035    0.8649374570    2.9284857908
C        2.6356401015    0.6975566763    0.4515251066
N        2.0049633069    0.3530188134    1.7255397636
O        0.6104703455   -0.9518669714    2.9787045981
H        1.1674367105   -1.7614696966    0.0280565042
H       -0.3643529169   -1.8905206102    0.9184294780
H       -0.0116813441   -0.4416978135   -0.0485626156
H        3.4239493686    2.6723798340    0.9761121100
H        3.1927670559    2.4043025177   -0.7545622263
H        1.7882631134    2.6956306808    0.2925221716
H        3.7430215304    0.7270754553    2.8543490720
H        2.4496265860    1.9308971116    3.0714345328
H        2.2783409024    0.3145780890    3.7881884860
H        2.0523993364    0.2714742887   -0.3626645671
H        3.6339098209    0.2354828866    0.4059023709
18   
Generated by ForceBalance from scan.xyz: Frame 22 of 24
C        0.9522464019   -0.6053197123    1.9060012600
C        0.3793926352   -1.2527996441    0.6512048617
C        2.8626986384    2.1873304490    0.2823380967
C        2.5375164085    0.9295144344    2.9331621120
C        2.5058092075    0.7085675426    0.4546724980
N        1.8661665246    0.4156426620    1.7404149079
O        0.5798519420   -0.9779862274    3.0204128370
H        1.1543188995   -1.7556542901    0.0635393460
H       -0.3536321295   -1.9915097807    0.9744279566
H       -0.1144528252   -0.5222791143    0.0026481605
H        3.6301714659    2.5127700864    0.9891504704
H        3.2515567579    2.3521024505   -0.7276414736
H        1.9794029465    2.8202446516    0.4173709700
H        3.6089682590    0.6893728270    2.9054913779
H        2.4248265577    2.0150361541    3.0102411713
H        2.0887470282    0.4613032022    3.8072168389
H        1.8324026719    0.4157678230   -0.3497266551
H        3.4195854840    0.1021564504    0.3480042316
18   
Generated by ForceBalance from scan.xyz: Frame 23 of 24
C        1.0428439862   -0.6686872557    1.9578492657
C        0.4762465468   -1.3469978439    0.7174776503
C        2.9451064148    2.1754033709    0.3211091545
C        2.5269414253    0.9846034164    2.9353679864
C        2.4134126808    0.7467783396    0.4451954830
N        1.8355845762    0.4472115044    1.7633102218
O        0.7680609971   -1.0941721549    3.0811857515
H        1.2679948876   -1.7430158393    0.0732877336
H       -0.1527209373   -2.1708271382    1.0538825284
H       -0.1279748586   -0.6576421358    0.1190485211
H        3.8008419177    2.3590546986    0.9752537002
H        3.2733509761    2.3453910521   -0.7091916063
H        2.1670181856    2.9094715774    0.5546324140
H        3.5855942198    0.6898878856    2.9416053798
H        2.4658589370    2.0754904193    2.9537998669
H        2.0472859732    0.5824119839    3.8254769168
H        1.6466399333    0.5943162598   -0.3155130072
H        3.2325208536    0.0435609087    0.2243567549
18   
Generated by ForceBalance from scan.xyz: Frame 24 of 24
C        1.1314920506   -0.7907515936    1.9070016373
C        0.6663626711   -1.5219992973    0.6554586721
C        3.1955272908    2.0059536458    0.3477606937
C        2.3495457636    1.0424238143    2.9157042665
C        2.1791702592    0.8659296003    0.3970868271
N        2.0211783697    0.2518677887    1.7284415110
O        0.7470869450   -1.1473073731    3.0222575268
H        1.5101884053   -1.9093168661    0.0757588209
H        0.0372037043   -2.3530915247    0.9730728189
H        0.0855678415   -0.8672731119   -0.0025443518
H        4.1938965430    1.6752093105    0.6504627015
H        3.2619454390    2.3691748171   -0.6826394148
H        2.9036320563    2.8491379433    0.9784565758
H        3.3884537048    1.3752926630    2.8781804630
H        1.6971296634    1.9207773106    3.0153566301
H        2.2057892540    0.4105097351    3.7899892224
H        1.2116105755    1.2561349304    0.0470795336
H        2.4846921982    0.0924518575   -0.3129107687
