16   

C        5.0202315385    1.6401617591    0.1072106471
C        5.3180050989    0.5088766714    0.8043592054
C        3.3530568224    0.2730439071   -0.2439690917
C        2.0817715281   -0.3296392602   -0.7324156873
C        0.4484193570   -2.1482917664   -0.3783045627
N        3.8079575174    1.4804326344   -0.5366910435
N        4.2729985085   -0.3802286726    0.5944667425
N        1.6820491508   -1.4600941398   -0.0278889350
O        1.4027474878    0.0992983462   -1.6584017491
H        5.6394931439    2.5287197471    0.0586609893
H        6.2144599181    0.3527630661    1.3935097409
H        0.2815529386   -2.9939190430    0.2957975754
H        0.5047128939   -2.5284203957   -1.4038320627
H       -0.4041678442   -1.4652657311   -0.2980957664
H        4.2228890163   -1.3464621790    0.9007969198
H        2.1569888155   -1.6884454510    0.8341157325
16   

C        4.9861591468    1.6555362459    0.1830856909
C        5.3487088813    0.4765871830    0.7621462956
C        3.3945584653    0.2445907742   -0.3003654320
C        2.1386443816   -0.3764598304   -0.8111455777
C        0.4182214369   -2.0828649387   -0.3433467154
N        3.7759467857    1.4996846652   -0.4669464992
N        4.3494109115   -0.4407100983    0.4675287315
N        1.6634747682   -1.4061600230   -0.0130035088
O        1.5203670707   -0.0154353903   -1.8059032834
H        5.5582988048    2.5755955704    0.2222993979
H        6.2574440479    0.3089633179    1.3289256807
H        0.1943954818   -2.8501533412    0.4040184225
H        0.4977597677   -2.5663196825   -1.3227690834
H       -0.4097166160   -1.3660648016   -0.3662013583
H        4.3445689329   -1.4356296384    0.6722177868
H        2.0850937811   -1.5385740303    0.8970833806
16   

C        4.9501776110    1.6578663287    0.2658059474
C        5.3901524176    0.4535615325    0.7290247443
C        3.4457440049    0.2042939721   -0.3405223938
C        2.2076256887   -0.4436321883   -0.8725694117
C        0.3994950406   -2.0285319887   -0.3282370240
N        3.7409106592    1.4916661625   -0.3845594771
N        4.4434335167   -0.4912084759    0.3571238976
N        1.6507981480   -1.3610274534   -0.0028496023
O        1.6642454634   -0.1679588858   -1.9358961694
H        5.4670013740    2.6030953209    0.3876294922
H        6.3142506489    0.2887669357    1.2712843378
H        0.1247161431   -2.7264166333    0.4685568498
H        0.5016101372   -2.5924882708   -1.2614343776
H       -0.4047055601   -1.2937048770   -0.4421178789
H        4.4875188571   -1.4991485020    0.4795589532
H        2.0270560293   -1.4126828220    0.9358606750
16   

C        4.8544844542    1.6507241127    0.3421069750
C        5.3946752176    0.4463589129    0.6848519799
C        3.4357236997    0.1489168161   -0.3386515308
C        2.2185095525   -0.5440366870   -0.8785176946
C        0.3432671217   -2.0212131320   -0.2750789785
N        3.6334666034    1.4534098987   -0.2780170278
N        4.5011917922   -0.5298903308    0.2652422821
N        1.5827692643   -1.3330718633    0.0515649966
O        1.7757918917   -0.4089361262   -2.0131988333
H        5.3097050708    2.6170686641    0.5275019514
H        6.3486645790    0.3031778278    1.1793864214
H        0.0233868482   -2.6432790967    0.5664526428
H        0.4856765386   -2.6681130044   -1.1471937680
H       -0.4470245305   -1.2954435189   -0.4946867006
H        4.6096108936   -1.5397466460    0.3091893167
H        1.9043280773   -1.2818484531    1.0111056838
16   

C        4.7886180196    1.6498508556    0.4711798895
C        5.4391057820    0.4656883478    0.6594187349
C        3.4417168515    0.1098057568   -0.2591196885
C        2.2624759378   -0.6234205979   -0.8437305193
C        0.3214533274   -2.0321812378   -0.2965617153
N        3.5462324206    1.4151692403   -0.0926296821
N        4.5935358703   -0.5355470634    0.2011010681
N        1.5021653305   -1.2756062150    0.0902469727
O        2.0410009260   -0.7341012097   -2.0440163782
H        5.1838187209    2.6278480806    0.7217031602
H        6.4334678029    0.3528643316    1.0760797482
H       -0.0944735127   -2.5523884845    0.5717024984
H        0.5778455689   -2.7792426969   -1.0550986696
H       -0.4426030348   -1.3599963867   -0.7013466480
H        4.7766607536   -1.5333349436    0.1316889025
H        1.6965260292   -1.0839690910    1.0666496042
16   

C        4.7727375774    1.6642671441    0.5605065703
C        5.5259416009    0.5273382207    0.5927003973
C        3.4829265686    0.0754595236   -0.1677803410
C        2.3526936735   -0.6885071675   -0.8087449715
C        0.3262884284   -2.0130880487   -0.3508605138
N        3.5081998981    1.3739116539    0.0754409548
N        4.7216987777   -0.5012426805    0.1211316200
N        1.4330520626   -1.1717456771    0.0785593208
O        2.3982634330   -1.1127843166   -1.9582316807
H        5.1139265970    2.6491220446    0.8589409563
H        6.5595749494    0.4640743461    0.9129489391
H       -0.1486005912   -2.4821766490    0.5162174724
H        0.6800484810   -2.8075116490   -1.0163756189
H       -0.4209405637   -1.4116603275   -0.8791834308
H        4.9743283476   -1.4670738298   -0.0737459623
H        1.4716354512   -0.8080463121    1.0246435261
16   

C        4.7297807061    1.6354423895    0.6854400491
C        5.5692040479    0.5678110584    0.5577565844
C        3.5089765870    0.0044672064   -0.0735871949
C        2.4153475424   -0.7846518920   -0.7339572275
C        0.2977254809   -1.9829998188   -0.3348331637
N        3.4558559847    1.2816662283    0.2708790863
N        4.8104645072   -0.4824507462    0.0596528648
N        1.3902791884   -1.1263463176    0.1003718062
O        2.5765992508   -1.3748746734   -1.7972389114
H        5.0176318633    2.6175976900    1.0430933405
H        6.6279835858    0.5651727837    0.7898563237
H       -0.2638550447   -2.3458265118    0.5313823213
H        0.6799935444   -2.8521596672   -0.8802453246
H       -0.3819279730   -1.4237801314   -0.9863560740
H        5.1171293087   -1.4016809449   -0.2509046554
H        1.3512891760   -0.6429124060    0.9918335094
16   

C        4.6986989472    1.5781081711    0.7684076796
C        5.5951240267    0.5841688448    0.5050157048
C        3.5371066733   -0.0768055277   -0.0343336599
C        2.4655950417   -0.8932826960   -0.6819451928
C        0.2638708157   -1.9436170853   -0.3159378367
N        3.4245249438    1.1675542884    0.4095093683
N        4.8737521472   -0.4778473223   -0.0226267461
N        1.3677143191   -1.0938773080    0.1031564785
O        2.6727277953   -1.5930115901   -1.6685774353
H        4.9462167920    2.5491156343    1.1822721502
H        6.6652294705    0.6379135809    0.6689351506
H       -0.3541956124   -2.2100351873    0.5468121418
H        0.6361864278   -2.8700376710   -0.7655669771
H       -0.3586569507   -1.4176590904   -1.0472977091
H        5.2132514181   -1.3526227251   -0.4172198788
H        1.3001638026   -0.5138568131    0.9339945393
16   

C        4.6763950525    1.5234526970    0.8343024424
C        5.6090473840    0.6082300333    0.4422761312
C        3.5610353481   -0.1427786646   -0.0108016826
C        2.5035071606   -0.9922977241   -0.6243145789
C        0.2344073241   -1.9000580714   -0.2871655974
N        3.4060102789    1.0583554817    0.5317606062
N        4.9161705103   -0.4593130688   -0.1116317455
N        1.3555431158   -1.0620168944    0.1079048631
O        2.7268051508   -1.7706883198   -1.5467054234
H        4.8950991543    2.4773503236    1.3008369135
H        6.6829384177    0.7169610842    0.5414474955
H       -0.4231379270   -2.0766297908    0.5694437794
H        0.5852848769   -2.8715002078   -0.6508841233
H       -0.3406677952   -1.4097391057   -1.0795283673
H        5.2754522956   -1.2915340927   -0.5753600048
H        1.2843406865   -0.4069828833    0.8816087011
16   

C        4.6660888751    1.4856639980    0.8906951931
C        5.6129676799    0.6490389633    0.3760675831
C        3.5769968610   -0.1703082301   -0.0072538154
C        2.5293508529   -1.0505446598   -0.5840817702
C        0.2050956876   -1.8263554625   -0.2982454590
N        3.4014719723    0.9772487981    0.6364891848
N        4.9360367738   -0.4115979825   -0.2097869609
N        1.3415912743   -1.0011233169    0.0788877280
O        2.7597588501   -1.8855805710   -1.4538390588
H        4.8702432030    2.4138947835    1.4123446803
H        6.6849408310    0.8038845203    0.4187054148
H       -0.4829361456   -1.9268777583    0.5466594006
H        0.5334659190   -2.8300616762   -0.5880323188
H       -0.3289905898   -1.3703373362   -1.1382525294
H        5.3025788163   -1.2026931564   -0.7359789700
H        1.2753914217   -0.2944667730    0.8071565137
16   

C        4.6710249630    1.4244692925    0.8134861011
C        5.6051600480    0.6301514160    0.2152789700
C        3.5719331028   -0.2383075699   -0.0590719385
C        2.5224963279   -1.1632207415   -0.5525045880
C        0.1494544884   -1.7944265210   -0.2922501334
N        3.4075611273    0.8824392189    0.6328224804
N        4.9213761480   -0.4360036874   -0.3521832402
N        1.3064237372   -0.9701807502    0.0213162391
O        2.7492055747   -2.0807565161   -1.3359037237
H        4.8830165743    2.3444310555    1.3465355170
H        6.6730520152    0.8147588853    0.1937249461
H       -0.4982180491   -1.8808991260    0.5855011848
H        0.4554455949   -2.8049657589   -0.5830171795
H       -0.4199431925   -1.3478562633   -1.1137123948
H        5.2765804749   -1.2160318968   -0.9023244382
H        1.2564573469   -0.1981378680    0.6820828257
16   

C        4.6952778675    1.4614793265    0.8046232812
C        5.6166132818    0.7359333643    0.1074236579
C        3.5961947305   -0.1768895304   -0.1130692496
C        2.5577950162   -1.1330819576   -0.5670933840
C        0.1465699789   -1.6661184508   -0.4126897721
N        3.4404956645    0.8883192009    0.6633734561
N        4.9330740681   -0.3158700840   -0.4864280129
N        1.3119505624   -0.8476541869   -0.1107331554
O        2.8009807933   -2.0931344737   -1.2924749630
H        4.9106426165    2.3528741177    1.3829359373
H        6.6762384043    0.9544383857    0.0411572447
H       -0.4049479329   -1.8854667559    0.5067415071
H        0.4359027211   -2.6212953636   -0.8634253912
H       -0.5121281784   -1.1403783272   -1.1110041085
H        5.2829853945   -1.0639533214   -1.0824889831
H        1.2562557840   -0.0387150774    0.5042482734
16   

C        4.6689154510    1.4313126904    0.8024332682
C        5.5721185939    0.7449261242    0.0444768658
C        3.5596424431   -0.1961683269   -0.1222476130
C        2.5285891396   -1.1854084028   -0.5204617882
C        0.0965356243   -1.6102764500   -0.5654279657
N        3.4205677424    0.8363842567    0.7001405841
N        4.8828252858   -0.3021528959   -0.5511414564
N        1.2586465261   -0.8040161030   -0.2252516832
O        2.7861504294   -2.2109067261   -1.1441598963
H        4.8933453363    2.3079704240    1.3995213658
H        6.6244660914    0.9838667936   -0.0575515312
H       -0.1533374530   -2.2799802835    0.2637280974
H        0.2855127005   -2.2119420279   -1.4607781772
H       -0.7611537033   -0.9630747141   -0.7725599578
H        5.2261276432   -1.0407489959   -1.1626061041
H        1.1752394622    0.0849338176    0.2625698638
16   

C        4.6549845649    1.5239095607    0.8332245489
C        5.5412609802    0.8990137344    0.0053466257
C        3.5629827459   -0.1221022534   -0.0793840855
C        2.5629940109   -1.1690732804   -0.4095087915
C        0.1453268665   -1.6182745974   -0.6066224481
N        3.4304608704    0.8752787027    0.7865086100
N        4.8642096243   -0.1613403203   -0.5808806939
N        1.2717681472   -0.7578005937   -0.2817001897
O        2.8608154297   -2.2399785061   -0.9303877910
H        4.8763606302    2.3920606053    1.4437292316
H        6.5756587463    1.1852233599   -0.1463994764
H       -0.0649076113   -2.2945892236    0.2283700879
H        0.3566355554   -2.2128300233   -1.5016543379
H       -0.7444810725   -1.0132156348   -0.8053741252
H        5.2101452628   -0.8805248102   -1.2134665556
H        1.1440871876    0.1639573004    0.1283989531
16   

C        4.6859793805    1.4893674822    0.8838232682
C        5.5132650212    0.9423829836   -0.0529605509
C        3.5535548279   -0.1174133853   -0.0491424296
C        2.5590459430   -1.1873761687   -0.3365048661
C        0.1574103893   -1.6317479524   -0.6846353951
N        3.4760627884    0.8128176236    0.8941469796
N        4.8115905564   -0.0945395797   -0.6521141973
N        1.2668597236   -0.7527567114   -0.3502165672
O        2.8736440773   -2.2851485009   -0.7864856414
H        4.9399296273    2.3201666955    1.5324283176
H        6.5267877446    1.2621686386   -0.2660524817
H       -0.0980894386   -2.2588038933    0.1758781165
H        0.4148757870   -2.2767269256   -1.5312874859
H       -0.7197702503   -1.0403019383   -0.9640431311
H        5.1272703085   -0.7744518082   -1.3411604896
H        1.1136368791    0.1891874605   -0.0009016277
16   

C        4.7337836651    1.4548917134    0.9498038838
C        5.4795998700    0.9873779388   -0.0923370187
C        3.5484611130   -0.1172586434    0.0247179265
C        2.5552748425   -1.2076892152   -0.2175901739
C        0.1852326600   -1.6695423026   -0.7219168984
N        3.5443931865    0.7478720267    1.0295240666
N        4.7450285561   -0.0286222350   -0.6879970794
N        1.2740826509   -0.7672921664   -0.3805686888
O        2.8849047955   -2.3358657751   -0.5704774773
H        5.0317264016    2.2497258772    1.6242467323
H        6.4631524953    1.3437273379   -0.3761029040
H       -0.1248797892   -2.2358769212    0.1624785215
H        0.4931661351   -2.3710034590   -1.5043295787
H       -0.6717616441   -1.1005306512   -1.0948897584
H        5.0165830722   -0.6659746856   -1.4338090604
H        1.0964176130    0.1978533899   -0.1194022141
16   

C        4.7947064981    1.4075170217    1.0217329393
C        5.4383600312    1.0241320389   -0.1182214394
C        3.5459282549   -0.1260865222    0.1188487462
C        2.5397718985   -1.2212609754   -0.0886865250
C        0.2151687375   -1.6959437381   -0.7599092365
N        3.6298413600    0.6723063237    1.1715854794
N        4.6626514392    0.0329229753   -0.7035621392
N        1.2903313059   -0.7783933421   -0.4148611470
O        2.8647846777   -2.3843005669   -0.3046475493
H        5.1474957482    2.1628696924    1.7148312809
H        6.3836785198    1.4182218253   -0.4731263321
H       -0.1639189395   -2.1872375730    0.1423439604
H        0.5673180269   -2.4599907451   -1.4608122086
H       -0.6060160733   -1.1513439435   -1.2357367751
H        4.8734733714   -0.5514394320   -1.5095076631
H        1.1072079322    0.2090918544   -0.2690158387
16   

C        4.8729160256    1.3130640593    1.0789865630
C        5.3811883292    1.0323653742   -0.1554480823
C        3.5580667180   -0.1884563501    0.2217104678
C        2.5165119499   -1.2627034616    0.0398764768
C        0.2412472728   -1.7171054028   -0.7890740429
N        3.7463317865    0.5402931567    1.3076440882
N        4.5592185990    0.0655972441   -0.7183760278
N        1.3287912553   -0.8083404739   -0.4595645859
O        2.7829201523   -2.4595277139    0.0331278405
H        5.2921390117    2.0252289509    1.7807596641
H        6.2691872195    1.4783061082   -0.5885233995
H       -0.2266346381   -2.0922785017    0.1271810831
H        0.6104424402   -2.5658557223   -1.3742945447
H       -0.5163172705   -1.1977647211   -1.3838591224
H        4.6806386504   -0.4416339767   -1.5916471445
H        1.1843535690    0.1956407164   -0.4605735346
16   

C        4.9088526089    1.2294306262    1.0922037656
C        5.2708270538    1.0537072829   -0.2112170587
C        3.5488199585   -0.2649533940    0.2944957795
C        2.4515522293   -1.2848950335    0.1341041782
C        0.2195276823   -1.6764318772   -0.8231551953
N        3.8334757394    0.4108532980    1.3921617092
N        4.4109491712    0.1023277658   -0.7431974551
N        1.3734538840   -0.8261212921   -0.5750923971
O        2.5323988217   -2.4525964172    0.4973190718
H        5.3906077654    1.9049974380    1.7900185756
H        6.0878540512    1.5608215609   -0.7116103806
H       -0.2840496596   -1.9150900520    0.1196687232
H        0.5286688134   -2.6080935798   -1.3085983098
H       -0.4911883786   -1.1657253443   -1.4800834914
H        4.4282438664   -0.3158945928   -1.6698712382
H        1.3389626845    0.1657077666   -0.7823318713
16   

C        5.0027373131    1.1252199338    1.1192658715
C        5.2174026355    1.0621668987   -0.2260104338
C        3.5691913204   -0.3222545370    0.3569981397
C        2.4314409051   -1.2928350116    0.2278915038
C        0.2354419108   -1.6484677208   -0.8275814194
N        3.9686570098    0.2737745894    1.4658413354
N        4.3068905504    0.1469731617   -0.7367380796
N        1.4489899161   -0.8691132509   -0.6365441346
O        2.3279410349   -2.3441953998    0.8489287268
H        5.5557297382    1.7479346276    1.8134156742
H        5.9709139460    1.6210056577   -0.7692238870
H       -0.3311363378   -1.7036947345    0.1080853754
H        0.4829295897   -2.6637842614   -1.1550285137
H       -0.3952738944   -1.1843057945   -1.5919223962
H        4.2225002030   -0.1864963916   -1.6933845848
H        1.5152699326    0.0751066765   -0.9982020103
16   

C        5.1142802529    1.0741722684    1.1294280528
C        5.2032192761    1.1019879446   -0.2306438392
C        3.5879986625   -0.3018244100    0.4075761471
C        2.4358386728   -1.2509323584    0.3205404692
C        0.3007686725   -1.6881772097   -0.8319240280
N        4.1040013460    0.2101701810    1.5112074467
N        4.2350727409    0.2331268202   -0.7153537681
N        1.5228885528   -0.9171695976   -0.6611770699
O        2.2412456747   -2.2004964494    1.0704575072
H        5.7385056115    1.6419412940    1.8101535415
H        5.9127590148    1.6898059702   -0.8017688816
H       -0.3050528562   -1.6467946897    0.0796448869
H        0.5394445532   -2.7336733211   -1.0539470580
H       -0.2882092150   -1.2848318050   -1.6612864390
H        4.0699444557   -0.0401649439   -1.6801976255
H        1.6296097514   -0.0221248898   -1.1226145033
16   

C        5.1720018903    1.0056106254    1.1436858610
C        5.1602434899    1.1351113786   -0.2126937830
C        3.5382372493   -0.2581225233    0.4426320914
C        2.3686705432   -1.1811280171    0.3785961021
C        0.3146673137   -1.7214584851   -0.8782327946
N        4.1632910409    0.1452717391    1.5358146059
N        4.1266641481    0.3375357526   -0.6843049561
N        1.5305477178   -0.9419754838   -0.7000397653
O        2.1019303162   -2.0491005933    1.2017737861
H        5.8663748962    1.4984604749    1.8147565219
H        5.8475003931    1.7417727248   -0.7912922313
H       -0.3404972739   -1.6085626145   -0.0077042284
H        0.5590541843   -2.7814420824   -1.0048538765
H       -0.2256056798   -1.3824112689   -1.7673538657
H        3.8949847120    0.1355178030   -1.6524471871
H        1.6723950435   -0.0962320193   -1.2368372588
16   

C        5.0835052408    1.3611692237   -0.2698578556
C        5.2529636163    0.4071842057    0.6870822542
C        3.2538098348    0.1682860226   -0.2934775001
C        1.8966973811   -0.3547988696   -0.6143295699
C        0.3674867090   -2.2780645694   -0.3638359320
N        3.8459737994    1.2043607713   -0.8645657948
N        4.0992893543   -0.3645563655    0.6950496563
N        1.6456277818   -1.6279538838   -0.1148627204
O        1.0445943449    0.2365983452   -1.2675501906
H        5.8044533434    2.1298325349   -0.5243517425
H        6.1276662500    0.3003601858    1.3184178391
H        0.3575152095   -3.2775038629    0.0815444860
H        0.1933704116   -2.3747562651   -1.4409559263
H       -0.4470865962   -1.6939488236    0.0773700287
H        3.8648902535   -1.1052050533    1.3480808990
H        2.4152992212   -2.1619143366    0.2636196976
16   

C        5.0683547482    1.6191932980    0.0278834934
C        5.2975896420    0.5658794007    0.8594386677
C        3.3389142602    0.3012334834   -0.1957897220
C        2.0515908334   -0.2837419663   -0.6657058408
C        0.4727346491   -2.1720682569   -0.4434706467
N        3.8600386838    1.4424515585   -0.6179987562
N        4.2104415426   -0.2886033568    0.7374443781
N        1.7083713091   -1.4962943763   -0.0755069432
O        1.3159325493    0.2185255798   -1.5080777651
H        5.7322355611    2.4648113431   -0.1119919621
H        6.1743257720    0.4398867380    1.4843597834
H        0.3892959831   -3.1252129250    0.0874377959
H        0.4557341704   -2.3731705278   -1.5200016556
H       -0.3912376340   -1.5510485740   -0.1835378674
H        4.0844656884   -1.1787973876    1.2061006003
H        2.2946026299   -1.8828299939    0.6487798712
