25

C      4.31653    1.07397   -5.54504
C      3.82958    0.36003   -4.48765
C      5.66589   -0.82558   -4.83975
C      2.85755    1.17446   -2.31982
C      1.97903    1.36019   -0.13407
C      5.63628   -3.53578   -2.78197
C      2.57442    0.65593   -3.72453
N      4.60828   -0.71169   -4.08965
N      6.61542   -1.83387   -4.66316
O      3.83590    1.81078   -1.98825
O      4.90112   -3.71569   -5.32661
O      7.32730   -4.23905   -4.74094
O      1.83990    0.86320   -1.48303
S      5.80116    0.36925   -6.12011
S      6.09427   -3.48166   -4.51723
H      3.91833    1.97493   -5.99235
H      1.08538    1.02541    0.39213
H      2.04170    2.45088   -0.13487
H      2.87831    0.94906    0.33007
H      5.26303   -4.54427   -2.59437
H      6.52799   -3.32677   -2.19155
H      4.86188   -2.78470   -2.62583
H      1.98896    1.42454   -4.23951
H      1.94753   -0.23681   -3.65582
H      7.44373   -1.79802   -5.25361
