25

C      4.78721    0.93440   -5.24096
C      4.05103    0.23841   -4.32338
C      5.78277   -1.13401   -4.44375
C      1.58223   -0.22080   -4.37274
C     -0.65358   -0.91283   -4.04596
C      9.17966   -2.27622   -4.97341
C      2.70609    0.62857   -3.79083
N      4.63334   -0.93082   -3.86766
N      6.55469   -2.28767   -4.23249
O      1.62574   -0.82884   -5.42179
O      8.30891   -0.82949   -2.93267
O      8.26919   -3.38226   -2.73007
O      0.49417   -0.17745   -3.56894
S      6.25776    0.08467   -5.60785
S      8.12982   -2.15657   -3.51715
H      4.55758    1.87930   -5.71543
H     -1.42439   -0.77026   -3.28893
H     -0.40717   -1.97161   -4.15218
H     -0.98242   -0.52113   -5.01139
H     10.21020   -2.23762   -4.61574
H      8.97018   -3.22329   -5.46973
H      8.97131   -1.42755   -5.62562
H      2.68336    0.54399   -2.70131
H      2.48360    1.67195   -4.03737
H      6.02995   -2.98509   -3.70164
