30

C      2.63897    0.12599    0.21165
C      6.27185   -1.95728    0.72003
C      2.49236   -1.22506    0.54828
C      2.56272    1.11665    1.19609
C      6.22777   -2.97619    1.67931
C      5.92130   -0.64758    1.06099
C      2.25261   -1.59448    1.87173
C      2.34416    0.76405    2.53014
C      5.82869   -2.69251    2.98591
C      5.50586   -0.34865    2.35926
C      2.19034   -0.58869    2.84123
C      5.45508   -1.38088    3.29777
N      3.35304   -1.74539    5.22049
O      1.64619    0.16271    5.32295
O      0.92004   -2.16834    4.54138
O      5.82254   -1.70465    5.89421
O      4.69331    0.44779    5.07312
F      3.47091   -3.06590    4.71030
S      1.83632   -1.03883    4.52892
S      4.96823   -0.97960    4.96837
H      2.81086    0.40697   -0.82391
H      6.59042   -2.18476   -0.29370
H      2.55596   -1.99000   -0.21989
H      2.67294    2.16372    0.92866
H      6.51523   -3.98960    1.41436
H      5.96722    0.14354    0.31853
H      2.10789   -2.63358    2.14821
H      2.29080    1.50980    3.31627
H      5.81441   -3.46459    3.74672
H      5.23334    0.66013    2.64589
