25

C      5.10499    1.50447   -5.35013
C      4.46004    0.72391   -4.43185
C      6.13979   -0.64411   -4.88341
C      3.46620    1.43468   -2.23748
C      2.45362    1.64930   -0.11305
C      8.81061   -2.22989   -6.74290
C      3.20422    1.07994   -3.69642
N      5.05157   -0.50173   -4.18360
N      6.98800   -1.75730   -4.76908
O      4.52237    1.82118   -1.78226
O      7.39667   -4.13323   -5.53315
O      6.21219   -2.54104   -7.15202
O      2.33464    1.29533   -1.50811
S      6.54934    0.71583   -5.90758
S      7.22119   -2.80859   -6.12967
H      4.82298    2.47922   -5.72569
H      1.46568    1.47956    0.31443
H      2.74501    2.69716   -0.00960
H      3.19971    1.01838    0.37512
H      9.06314   -2.86447   -7.59435
H      8.70642   -1.19180   -7.05997
H      9.54403   -2.33266   -5.94372
H      2.72185    1.94753   -4.15854
H      2.48763    0.25548   -3.73513
H      6.72209   -2.33772   -3.97159
