14

C      0.11289   -3.25388    0.75875
C      0.46167   -2.00906    0.28841
C      0.76173   -0.76597    1.07279
N     -0.13714   -4.18681   -0.21678
N      0.00024   -3.75702   -1.41623
N      2.07315    1.21303    1.13599
N      1.85220   -0.01887    0.44050
S      0.46824   -2.08197   -1.42492
H      0.02264   -3.54165    1.80009
H     -0.11104   -0.10596    1.08192
H      0.96583   -1.04537    2.11980
H      2.74417    1.10338    1.89940
H      2.45742    1.87797    0.46885
H      2.69252   -0.60008    0.42034
