16

C      0.52552    3.33116   -1.88206
C      0.81540    4.46235   -2.16271
C     -0.50091    1.76497   -0.48733
C      0.42809    6.44645   -3.33110
C     -0.75074    0.28439   -0.42832
C      0.99876    7.83214   -3.44175
O     -0.83901    2.60989    0.29566
O     -0.51566    5.98052   -3.90860
O      0.23165    2.05959   -1.65337
O      1.19096    5.70974   -2.40461
H     -1.31300   -0.03189   -1.31150
H     -1.31006    0.04971    0.47629
H      0.20113   -0.25410   -0.43376
H      0.97369    8.32224   -2.46433
H      0.41703    8.40421   -4.16325
H      2.04466    7.77971   -3.75704
