16   

C        0.5835530914    0.8867058924    1.7731429409
C        0.3344248281    0.9003438096    3.1258243660
C       -0.2610893419    0.1632356963    0.9623554585
C       -4.2782735799   -1.9971502270    4.4797689252
C       -4.3309924939   -2.6059300213    3.2689068446
C       -1.4934568340   -0.4679937987    2.7986909337
C       -2.6556103790   -1.2100371894    3.3143732217
N       -0.6923707410    0.2317341221    3.6338208753
N       -1.2902884055   -0.5056209028    1.4705701510
N       -3.2196027328   -1.1199490757    4.4892672797
O       -3.3168739481   -2.1251997774    2.5131283781
H        1.4201591008    1.4312798244    1.3593068001
H        0.9823969690    1.4630426294    3.7882225355
H       -0.0863612615    0.1381448479   -0.1071897846
H       -4.9602491614   -2.1724526164    5.3035666620
H       -5.0579889469   -3.3470982539    2.9599878756
16   

C        0.5779206091    0.8955906752    1.7741235595
C        0.3873378442    0.8314882422    3.1350282014
C       -0.3155478412    0.2382500780    0.9590642856
C       -4.3332487467   -1.9259441263    4.4425685028
C       -4.2549066118   -2.6873756225    3.3224352814
C       -1.4777479449   -0.4832503314    2.8063988359
C       -2.6427222414   -1.2214117697    3.3261236023
N       -0.6297659344    0.1509910407    3.6470008255
N       -1.3356500983   -0.4417875513    1.4708379040
N       -3.3131256816   -1.0040693353    4.4248001171
O       -3.1949213398   -2.2602706995    2.5977581779
H        1.4065852776    1.4499028911    1.3572467404
H        1.0740288752    1.3420810233    3.8006267492
H       -0.1878165667    0.2761328045   -0.1167325503
H       -5.0801116695   -2.0258845572    5.2214648946
H       -4.9244181607   -3.4954144628    3.0538840989
16   

C        0.5647721734    0.8994389702    1.7805776977
C        0.4333201847    0.7555668033    3.1426660403
C       -0.3807412852    0.3146709542    0.9684843564
C       -4.3980492867   -1.8609457727    4.3988949323
C       -4.1905825922   -2.7575118369    3.4013763783
C       -1.4752862876   -0.4932138506    2.8191821012
C       -2.6448301174   -1.2267187641    3.3449546727
N       -0.5769308741    0.0677145941    3.6588296808
N       -1.3944189507   -0.3722256736    1.4839204559
N       -3.4176458492   -0.8981300261    4.3419975164
O       -3.0873182746   -2.3761378720    2.7165408633
H        1.3877705239    1.4598289273    1.3605996737
H        1.1615837720    1.2087352104    3.8056437659
H       -0.3000939278    0.4168530329   -0.1076892191
H       -5.2073397144   -1.8956490164    5.1188437286
H       -4.8021030324   -3.6259501304    3.1888714918
16   

C        0.5594683851    0.9070927862    1.7764765523
C        0.4816146073    0.6759656263    3.1309731284
C       -0.4402774352    0.4096316693    0.9706461990
C       -4.4684555227   -1.7987559548    4.3146762294
C       -4.1283379958   -2.8073897337    3.4721088209
C       -1.4813653195   -0.4822925105    2.8107191904
C       -2.6595605159   -1.2108311084    3.3375966994
N       -0.5296214939   -0.0116121565    3.6461534870
N       -1.4549736009   -0.2768829486    1.4846615471
N       -3.5330299148   -0.7959078995    4.2082981269
O       -2.9854638245   -2.4569222308    2.8372809029
H        1.3830992204    1.4673870618    1.3575978249
H        1.2535604710    1.0592988729    3.7885624050
H       -0.4019101826    0.5813964939   -0.0989927908
H       -5.3382994155   -1.7842274407    4.9609355081
H       -4.6767330155   -3.7307516151    3.3307693658
16   

C        0.5685584354    0.9024962624    1.7832549961
C        0.5310358707    0.5741581832    3.1194793802
C       -0.4846026435    0.5138839366    0.9852718526
C       -4.5417928111   -1.7494447993    4.2169434226
C       -4.0634045536   -2.8438131616    3.5711481110
C       -1.4997784989   -0.4566916257    2.7973529361
C       -2.6907725131   -1.1803801207    3.3168223428
N       -0.4935802955   -0.1009193647    3.6252179936
N       -1.5121980661   -0.1604925895    1.4896705408
N       -3.6616811886   -0.7073330203    4.0382544482
O       -2.8887161552   -2.5072607724    2.9889038326
H        1.4028536757    1.4527382565    1.3722162553
H        1.3464508669    0.8692047136    3.7701060165
H       -0.4776293135    0.7619188988   -0.0699721353
H       -5.4679752330   -1.7039658466    4.7778500176
H       -4.5391827072   -3.8159759127    3.5280294646
16   

C        0.5729516397    0.8983403485    1.7921320354
C        0.5548584116    0.4512957683    3.0937148802
C       -0.5247832883    0.6455571767    0.9998024267
C       -4.6327492725   -1.7127985216    4.0829996754
C       -4.0183437367   -2.8520994013    3.6729577012
C       -1.5489509433   -0.4156586591    2.7548189642
C       -2.7533230178   -1.1393395868    3.2498830875
N       -0.4948982584   -0.2045092911    3.5727950658
N       -1.5764881397   -0.0104606281    1.4779384327
N       -3.8145575981   -0.6419060840    3.8064434467
O       -2.8208266780   -2.5140991768    3.1401743710
H        1.4273667887    1.4331914933    1.4026797834
H        1.4067676712    0.6348613343    3.7385586904
H       -0.5328126413    0.9856002990   -0.0294764008
H       -5.6083506976   -1.6570309116    4.5516090177
H       -4.4165950757   -3.8558933846    3.7573834660
16   

C        0.5783778883    0.9009226916    1.7988118826
C        0.5800995859    0.3316500688    3.0516664777
C       -0.5534026739    0.7716529268    1.0251032978
C       -4.6897697912   -1.7238211023    3.9343198882
C       -3.9617014245   -2.8581855231    3.7716350411
C       -1.5753462498   -0.4000753966    2.7110917457
C       -2.7829038375   -1.1348424342    3.1739509294
N       -0.4841105950   -0.3200194670    3.5038143859
N       -1.6187545650    0.1188600123    1.4763408526
N       -3.9230281567   -0.6454708796    3.5578152902
O       -2.7442765317   -2.5101296526    3.2932887615
H        1.4442948077    1.4328660865    1.4314137936
H        1.4598728072    0.4137263718    3.6797858203
H       -0.5769859651    1.2066806502    0.0324812850
H       -5.7073152290   -1.6761582491    4.3042234451
H       -4.2958997558   -3.8655570502    3.9880643374
16   

C        0.5786345035    0.9159480031    1.8043340109
C        0.6126027001    0.2448814695    3.0051720782
C       -0.5852094044    0.8795682414    1.0693349405
C       -4.7183794945   -1.7400899052    3.8168773206
C       -3.9175658492   -2.8336480829    3.8925633323
C       -1.5766016481   -0.3981200293    2.6974939077
C       -2.7800939182   -1.1407983584    3.1415150940
N       -0.4517831392   -0.4139247684    3.4464727501
N       -1.6504791918    0.2192979022    1.5091575262
N       -3.9783566284   -0.6785839134    3.3504301465
O       -2.6802937078   -2.4777331238    3.4748041912
H        1.4446617251    1.4540421556    1.4462779479
H        1.5183549344    0.2515864167    3.6008561615
H       -0.6344176515    1.3947433477    0.1168267837
H       -5.7677965681   -1.7080625126    4.0855583734
H       -4.2158459350   -3.8187358478    4.2301290637
16   

C        0.5721953410    0.9272285956    1.8048547082
C        0.6423173611    0.1711929347    2.9524109178
C       -0.6216457245    0.9643255983    1.1197600124
C       -4.7340818128   -1.7785980020    3.7100792642
C       -3.8925220120   -2.8015158570    4.0062982133
C       -1.5707774573   -0.4111713810    2.6943552372
C       -2.7686437239   -1.1575242146    3.1312680206
N       -0.4159727240   -0.4988838540    3.3914318183
N       -1.6808212062    0.2929535143    1.5568374322
N       -4.0049188901   -0.7459769222    3.1683711019
O       -2.6394767017   -2.4302731447    3.6541377168
H        1.4334223488    1.4744232452    1.4490214277
H        1.5720079426    0.1194592694    3.5076313605
H       -0.6999676063    1.5476022739    0.2094042725
H       -5.8047047697   -1.7748190183    3.8781131681
H       -4.1739690959   -3.7492064976    4.4489997117
16   

C        0.5623835321    0.9396922879    1.8048643551
C        0.6651115150    0.1107840134    2.8983308501
C       -0.6577888829    1.0409994788    1.1749204226
C       -4.7429299358   -1.8252827753    3.6139476583
C       -3.8859661300   -2.7515794537    4.1132383194
C       -1.5667023552   -0.4218526282    2.6951361807
C       -2.7608623401   -1.1667580728    3.1327682215
N       -0.3865865112   -0.5690894257    3.3381513944
N       -1.7105248848    0.3603973664    1.6127078023
N       -4.0153890222   -0.8292402137    3.0061071347
O       -2.6241829438   -2.3553349143    3.8255954979
H        1.4185253181    1.4943969525    1.4483928476
H        1.6155073890    0.0089936816    3.4098580865
H       -0.7626649047    1.6836934490    0.3082972657
H       -5.8235929252   -1.8629684640    3.6862128977
H       -4.1629718902   -3.6508908721    4.6497248979
16   

C        0.5524580655    0.9576470183    1.8121454856
C        0.6801924224    0.0637256003    2.8502863825
C       -0.6891516376    1.1199549625    1.2395825290
C       -4.7451377674   -1.8743465783    3.5345354730
C       -3.8935371609   -2.6793494388    4.2185531908
C       -1.5674453144   -0.4204457477    2.7012357553
C       -2.7603092496   -1.1609466298    3.1439190763
N       -0.3673422431   -0.6221827353    3.2906621132
N       -1.7378423245    0.4339711890    1.6783088960
N       -4.0140596502   -0.9205851970    2.8664543822
O       -2.6314751972   -2.2473441898    3.9898904618
H        1.4054893576    1.5165393633    1.4547620847
H        1.6472072443   -0.0850990503    3.3172009976
H       -0.8147181265    1.8163989603    0.4184332381
H       -5.8247740830   -1.9672004141    3.5192595780
H       -4.1743683831   -3.5209047381    4.8400250695
16   

C        0.5490481067    0.9715129956    1.8276902420
C        0.6933539256    0.0150050781    2.8061479157
C       -0.7084557678    1.1943942799    1.3131709735
C       -4.7365160509   -1.9344111729    3.4596920303
C       -3.9122961273   -2.5985522002    4.3085191554
C       -1.5672838730   -0.4194497466    2.7059281953
C       -2.7615353951   -1.1545346662    3.1522033422
N       -0.3528689529   -0.6752277743    3.2428788930
N       -1.7560094260    0.5048648835    1.7489051560
N       -3.9947168180   -1.0285273564    2.7389717164
O       -2.6571336042   -2.1235782470    4.1335106208
H        1.4012457026    1.5331042495    1.4725563033
H        1.6725742699   -0.1803403470    3.2283365914
H       -0.8478368944    1.9427733417    0.5414267637
H       -5.8045159726   -2.0925011359    3.3656120890
H       -4.2069768208   -3.3739430792    5.0051117643
16   

C        0.5479140106    0.9806542082    1.8428951114
C        0.7019444087   -0.0365442830    2.7565429387
C       -0.7207755855    1.2637267027    1.3889369906
C       -4.7180210599   -2.0062214434    3.3915216991
C       -3.9401946548   -2.5117075485    4.3817796005
C       -1.5694809895   -0.4189194107    2.7038512655
C       -2.7662633005   -1.1489628187    3.1532201611
N       -0.3452547720   -0.7293527174    3.1868106731
N       -1.7694755096    0.5722733125    1.8189647141
N       -3.9608223167   -1.1526407893    2.6243712614
O       -2.6995949004   -1.9866640759    4.2515489873
H        1.4010385309    1.5436250830    1.4921958828
H        1.6897287808   -0.2783045629    3.1321879368
H       -0.8682436559    2.0623463055    0.6709208886
H       -5.7641844283   -2.2390444907    3.2308819257
H       -4.2564022332   -3.2136964904    5.1437068778
16   

C        0.6387283887    0.8369686111    1.8289041614
C       -0.3408351111    1.4524154009    2.5739067338
C        0.4989010843   -0.5034792744    1.5467785271
C       -3.9498818188   -2.8844850431    3.8682213705
C       -4.6558450052   -1.7254785827    3.8643630450
C       -1.4726472766   -0.5480637769    2.7248364727
C       -2.6255460079   -1.3481765063    3.1755755822
N       -1.3906141532    0.7699795919    3.0143551726
N       -0.5514015026   -1.1873322576    1.9853474193
N       -2.6694849395   -2.6259683864    3.4385339312
O       -3.8382032146   -0.7365202861    3.4339320034
H        1.4941174141    1.3926850475    1.4722003546
H       -0.2577335707    2.5080744458    2.8061842791
H        1.2548649588   -1.0095863238    0.9573173688
H       -4.3321178673   -3.8541097391    4.1652043571
H       -5.6927193973   -1.6110420520    4.1560939557
16   

C        0.6291902205    0.8432514712    1.8202973674
C       -0.3059357028    1.4278014919    2.6432925369
C        0.4505684487   -0.4741944577    1.4618417168
C       -3.9277808943   -2.8648364344    3.9618425377
C       -4.6829286097   -1.7582474754    3.7437105738
C       -1.4661305941   -0.5597737231    2.7231230822
C       -2.6216733901   -1.3634341186    3.1721693703
N       -1.3491738127    0.7369872005    3.0862066017
N       -0.5936414797   -1.1661988809    1.9027220242
N       -2.6276872697   -2.5930315791    3.6050361616
O       -3.8768753476   -0.7902359285    3.2485185030
H        1.4795952098    1.4054399805    1.4618187572
H       -0.1927674871    2.4655740924    2.9356862559
H        1.1701862146   -0.9549662614    0.8090759453
H       -4.2897645182   -3.8065788548    4.3575342510
H       -5.7451507319   -1.6650687773    3.9342788472
16   

C        0.6220953778    0.8579814902    1.8183248188
C       -0.2565643551    1.4045664282    2.7253523386
C        0.3958439348   -0.4293649913    1.3851631436
C       -3.9083708366   -2.8208493648    4.0776055457
C       -4.6917290152   -1.8007420469    3.6432885746
C       -1.4537984945   -0.5619593934    2.7370103695
C       -2.6089975001   -1.3690837869    3.1965672664
N       -1.2909175250    0.7056832941    3.1763133557
N       -0.6398043041   -1.1291633807    1.8345128499
N       -2.5951895841   -2.5240685446    3.7956881570
O       -3.8899203343   -0.8638085472    3.0853463536
H        1.4653717680    1.4264359092    1.4529520427
H       -0.1057654707    2.4185559639    3.0779944180
H        1.0701368701   -0.8795039037    0.6655781028
H       -4.2603494208   -3.7193759380    4.5708119584
H       -5.7700380158   -1.7450884401    3.7297289955
16   

C        0.6093496192    0.8595987904    1.8087593038
C       -0.1966118861    1.3679642605    2.8015879869
C        0.3156176436   -0.3878234276    1.3048527357
C       -3.9107442038   -2.7632072119    4.1851139255
C       -4.7009432535   -1.8718594577    3.5336403992
C       -1.4582469152   -0.5563153344    2.7487684390
C       -2.6115783175   -1.3634286152    3.2290920036
N       -1.2267237113    0.6707998324    3.2647134568
N       -0.7156806128   -1.0860516851    1.7670537892
N       -2.5938726319   -2.4188595949    3.9857099661
O       -3.8989705987   -0.9695010707    2.9215368803
H        1.4489817158    1.4266121248    1.4328989562
H        0.0087223350    2.3498991543    3.2125783709
H        0.9325564704   -0.8074019103    0.5184405528
H       -4.2610793225   -3.6057508809    4.7698228852
H       -5.7838334479   -1.8803035492    3.5090417532
16   

C        0.6067748990    0.8532068690    1.8029942263
C       -0.1030395511    1.3290784296    2.8818838477
C        0.2133474185   -0.3392850855    1.2374109325
C       -3.9162741694   -2.6687277618    4.3136650260
C       -4.6906457653   -1.9550883484    3.4565171423
C       -1.4743504222   -0.5152003559    2.7788121827
C       -2.6236319271   -1.3123750311    3.2916249820
N       -1.1385598104    0.6542793486    3.3655478138
N       -0.8227560545   -1.0161177907    1.7205709239
N       -2.6128503108   -2.2452491045    4.1933172265
O       -3.8919226549   -1.0850125813    2.7953371754
H        1.4504953376    1.4023267451    1.4100982928
H        0.1839292751    2.2664044968    3.3448503248
H        0.7553466725   -0.7331080508    0.3852085153
H       -4.2682949813   -3.4449533571    4.9830364226
H       -5.7603835648   -2.0629655265    3.3247683588
16   

C        0.6080918943    0.8434697340    1.7979052438
C       -0.0053583092    1.2833661183    2.9489279596
C        0.1045611526   -0.2780719367    1.1769961491
C       -3.9503978988   -2.5419399428    4.4111969009
C       -4.6735091904   -2.0361037744    3.3793101771
C       -1.5082699164   -0.4512970737    2.7972532127
C       -2.6578079717   -1.2296652904    3.3307606956
N       -1.0561256573    0.6433920925    3.4465678439
N       -0.9461702170   -0.9213656854    1.6742781813
N       -2.6771100467   -2.0238054795    4.3582639729
O       -3.8735047517   -1.2008373145    2.6761092621
H        1.4640443887    1.3646551904    1.3935830765
H        0.3717780141    2.1628533810    3.4583781913
H        0.5716696319   -0.6438118394    0.2697178864
H       -4.3160900012   -3.2427325614    5.1525861684
H       -5.7091377651   -2.2624274090    3.1566544783
16   

C        0.6142321982    0.8340279842    1.7941071495
C        0.0740887728    1.2197151997    2.9997738894
C        0.0274322994   -0.2144080085    1.1212254284
C       -3.9972026311   -2.4274901030    4.4664131409
C       -4.6381608729   -2.1271501736    3.3080044523
C       -1.5277878163   -0.4203437647    2.7957815768
C       -2.6806488808   -1.1826799398    3.3308197095
N       -0.9870908202    0.5987771342    3.4988792339
N       -1.0335638144   -0.8391441317    1.6203392914
N       -2.7588060165   -1.8288773053    4.4575632802
O       -3.8218648542   -1.3409589709    2.5680317790
H        1.4786349677    1.3399200747    1.3883512253
H        0.5185642319    2.0399768917    3.5519339988
H        0.4369448426   -0.5378474073    0.1710732503
H       -4.3946341053   -3.0432622746    5.2647635515
H       -5.6290839298   -2.4600781392    3.0242059962
16   

C        0.6078626485    0.8419503573    1.7944523477
C        0.1303492321    1.1598352738    3.0451301017
C       -0.0417134716   -0.1376850035    1.0776461775
C       -4.0519364186   -2.3226849710    4.5103539596
C       -4.5952616235   -2.2175452692    3.2711368207
C       -1.5379093742   -0.4096308674    2.7990505095
C       -2.6924606036   -1.1631347926    3.3296527631
N       -0.9309987031    0.5401695854    3.5448581127
N       -1.1030646304   -0.7609637122    1.5777469089
N       -2.8478532445   -1.6583059102    4.5254558056
O       -3.7513526379   -1.4901405039    2.5028034092
H        1.4724031573    1.3469047117    1.3878376056
H        0.6248624202    1.9248971806    3.6328425311
H        0.3178201633   -0.4076248726    0.0912574066
H       -4.4928066398   -2.8489318852    5.3489116443
H       -5.5388154380   -2.6429815577    2.9517451090
16   

C        0.6097846193    0.8530766083    1.7843770320
C        0.1882088370    1.0971735018    3.0709161051
C       -0.0903131276   -0.0622658360    1.0315719827
C       -4.1019795252   -2.2345024890    4.5170244722
C       -4.5324475425   -2.3170693477    3.2330876051
C       -1.5265763238   -0.4181013507    2.7906759977
C       -2.6826881491   -1.1680852169    3.3132557480
N       -0.8674960676    0.4681796840    3.5704622256
N       -1.1464673258   -0.6942013396    1.5317398107
N       -2.9323388767   -1.5121183562    4.5473881972
O       -3.6505805663   -1.6523165888    2.4510654645
H        1.4697437346    1.3656343988    1.3775745414
H        0.7225158070    1.8110823201    3.6874558369
H        0.2240820937   -0.2734368764    0.0158694504
H       -4.5972552539   -2.6701147274    5.3769173846
H       -5.4253730352   -2.8270239211    2.8926134708
16   

C        0.6035093878    0.8600800770    1.7795688290
C        0.2377598976    1.0293169166    3.0947053708
C       -0.1437684248    0.0067034351    1.0001264266
C       -4.1593314437   -2.1558463297    4.5180608545
C       -4.4684536991   -2.4225250967    3.2246525730
C       -1.5155532864   -0.4385121097    2.7915777259
C       -2.6734916508   -1.1861795937    3.3086164109
N       -0.8090286384    0.3873821955    3.5962650336
N       -1.1915707643   -0.6373323437    1.5023516696
N       -3.0253022578   -1.3791905543    4.5518199329
O       -3.5440766888   -1.8220590117    2.4399827722
H        1.4562130492    1.3831762282    1.3709154119
H        0.8091291870    1.6942212885    3.7324423869
H        0.1253648948   -0.1443452615   -0.0390261265
H       -4.7144825043   -2.5003617836    5.3826883643
H       -5.3081062755   -3.0133841275    2.8794652546
16   

C        0.5898081083    0.8762615824    1.7727203616
C        0.2840120259    0.9680419347    3.1105954588
C       -0.2076047840    0.0878749230    0.9748307030
C       -4.2211153775   -2.0703377403    4.5082959536
C       -4.4054234946   -2.5124791339    3.2395693735
C       -1.5081915876   -0.4497870830    2.7943051359
C       -2.6678672084   -1.1944533766    3.3104140411
N       -0.7525631369    0.3131525875    3.6165125322
N       -1.2458837770   -0.5681688463    1.4812459901
N       -3.1237759062   -1.2424826400    4.5340625255
O       -3.4373307608   -1.9737802255    2.4629310417
H        1.4342987379    1.4097741695    1.3604945926
H        0.8948015812    1.5817909207    3.7629128223
H        0.0129490022   -0.0005466644   -0.0828192090
H       -4.8379543720   -2.3277227268    5.3613639516
H       -5.1902334873   -3.1801753536    2.9055974106
