57

C      0.08543   -4.96474    7.92565
C      4.19151   -7.75471   -0.20596
C      1.48490   -4.98666    7.88493
C     -0.63626   -4.85518    6.73381
C      3.21623   -8.59700    0.34190
C      4.19062   -6.39624    0.12238
C      0.18064   -1.37391    2.25394
C     -0.18820   -2.71823    0.31347
C      2.15010   -4.89941    6.65986
C      0.03376   -4.76563    5.50834
C      2.25200   -8.07888    1.20947
C      3.22122   -5.88017    0.98997
C      0.72134   -2.46858    2.92580
C      0.36450   -3.82410    0.96134
C     -0.29050   -1.46907    0.93687
C      1.43189   -4.78548    5.46068
C      2.24332   -6.71594    1.54003
C      0.83156   -3.72469    2.28891
C     -2.72665    0.70840   -0.29488
C     -1.87391    0.61369    0.99839
C     -1.91007   -0.47275   -0.88407
C     -0.82432   -0.24871    0.22066
C      2.18754   -4.67436    4.14175
C      1.16773   -6.17841    2.47685
C      0.32982    0.64348   -0.28057
C      1.31670   -0.06978   -1.19439
N      1.37727   -4.82460    2.94934
O      2.22102    0.91880   -1.71162
H     -0.43506   -5.03471    8.87734
H      4.94469   -8.15573   -0.87933
H      2.05547   -5.07608    8.80606
H     -1.72313   -4.83715    6.75572
H      3.21087   -9.65611    0.09637
H      4.94440   -5.73474   -0.29766
H      0.10881   -0.42411    2.78013
H     -0.52806   -2.83698   -0.71261
H      3.23853   -4.92294    6.63456
H     -0.52941   -4.67717    4.58403
H      1.49991   -8.74051    1.63665
H      3.22052   -4.82357    1.24086
H      1.02624   -2.35202    3.96042
H      0.45928   -4.75763    0.41681
H     -2.56204    1.64334   -0.83732
H     -3.80391    0.55590   -0.18743
H     -1.51193    1.55137    1.43269
H     -2.37234    0.03081    1.77819
H     -2.42957   -1.42630   -0.75493
H     -1.58590   -0.38796   -1.92598
H      2.71201   -3.71369    4.09904
H      2.97338   -5.43904    4.11751
H      0.19054   -6.23840    1.98548
H      1.09766   -6.83646    3.35139
H      0.87805    1.04208    0.58146
H     -0.07806    1.50458   -0.82389
H      1.86133   -0.84028   -0.63428
H      0.78238   -0.56802   -2.01742
H      2.89478    0.46197   -2.23802
