14   

C       -0.3065418492    0.8554452585   -2.0520908468
C       -0.4546071975   -0.1050800792   -0.9694483587
C       -1.0805969043    0.5379220261   -3.1382620826
C       -1.3506898695   -1.1149877132   -1.2687436784
C       -1.7304182729   -2.2922533309   -0.4666153984
C       -1.3075251317   -2.3876740336    0.9916122936
O       -2.3294401386   -3.2374974564   -0.9720184232
S       -2.0200037021   -0.9296850977   -2.8906921470
H        0.3465368041    1.7205703380   -2.0057611969
H        0.0920380538   -0.0322575556   -0.0351020205
H       -1.1170694374    1.1170169244   -4.0534648199
H       -1.7454320414   -1.5604187537    1.5561697144
H       -0.2181807418   -2.3424598611    1.0665301025
H       -1.6537869834   -3.3325632146    1.4199500604
14   

C       -0.2946146270    0.8543353699   -2.0632367147
C       -0.3905704092   -0.1379795954   -1.0036018180
C       -1.1700097319    0.6058752029   -3.0889428986
C       -1.3587959404   -1.0927946966   -1.2525436759
C       -1.6833273090   -2.3078098064   -0.4759223624
C       -1.3076733157   -2.3896239475    0.9961750197
O       -2.1351530253   -3.3085596990   -1.0232198911
S       -2.1483104381   -0.8300433176   -2.8075575989
H        0.3984979908    1.6888567512   -2.0469811043
H        0.2475000413   -0.1298686712   -0.1262533412
H       -1.2565902174    1.2162463760   -3.9801346503
H       -1.8727268870   -1.6426002078    1.5597355285
H       -0.2379118696   -2.2061640922    1.1215345317
H       -1.5443498277   -3.3831305558    1.3874687799
14   

C       -0.2472500928    0.8028544881   -2.0890824557
C       -0.3015569375   -0.2145016959   -1.0503401806
C       -1.2328574128    0.6398536979   -3.0285810273
C       -1.3545341552   -1.0924862340   -1.2209316686
C       -1.6491226625   -2.3311886240   -0.4580830067
C       -1.3278699667   -2.4003524530    1.0281803184
O       -1.9728501424   -3.3657276587   -1.0291846102
S       -2.2696669947   -0.7407641036   -2.6857324231
H        0.4977547321    1.5908389648   -2.1228164075
H        0.4284739139   -0.2814418298   -0.2508321064
H       -1.3654326283    1.2803266343   -3.8925752632
H       -2.0969433915   -1.8640202938    1.5901478926
H       -0.3540909095   -1.9502028927    1.2323119713
H       -1.3089758282   -3.4428386276    1.3582059073
14   

C       -0.2100581219    0.7893803952   -2.1149994334
C       -0.2200324475   -0.2596222585   -1.1067707268
C       -1.2786483475    0.6981936364   -2.9701734237
C       -1.3235462433   -1.0812301735   -1.2088630145
C       -1.5776250923   -2.3475233285   -0.4612913751
C       -1.3629721841   -2.3849655842    1.0448145337
O       -1.7322831720   -3.4089119416   -1.0488497906
S       -2.3422044989   -0.6494009582   -2.5794849756
H        0.5642091900    1.5456140363   -2.1904714010
H        0.5749159578   -0.3935491662   -0.3806580760
H       -1.4554124755    1.3714437058   -3.8006889167
H       -2.2712228536   -2.0418188883    1.5470164936
H       -0.5321627567   -1.7361099957    1.3307283464
H       -1.1418479078   -3.4064206067    1.3665780556
14   

C       -0.6219401308    0.8800546471   -2.0639342698
C       -1.1450669118   -0.0649323251   -1.0889284289
C       -0.4755852119    0.3165193193   -3.3061678388
C       -1.4151212492   -1.2964541590   -1.6403818861
C       -1.8168223781   -2.5434715178   -0.9060892980
C       -3.1130384869   -2.5508040246   -0.1111174699
O       -1.0245455112   -3.4563687255   -0.7369375789
S       -0.9754480802   -1.3714155083   -3.3435786404
H       -0.3631516587    1.9071574225   -1.8291030302
H       -1.2771956355    0.1702088702   -0.0378255440
H       -0.0907773738    0.8407871703   -4.1729719824
H       -3.9398218540   -2.8261304709   -0.7710027772
H       -3.3060754800   -1.5595494996    0.3062204435
H       -3.0494890366   -3.2758780612    0.7049042177
14   

C       -0.4983585588    0.8467284409   -2.0643722541
C       -0.9173150948   -0.0855629361   -1.0284651517
C       -0.5621045480    0.2927324691   -3.3180270466
C       -1.2879360180   -1.3051362919   -1.5376537288
C       -1.7648391147   -2.5112642233   -0.7692471844
C       -3.2429103897   -2.6513961965   -0.4462145671
O       -0.9797236160   -3.3504274001   -0.3625347335
S       -1.1304493015   -1.3735894106   -3.2894570281
H       -0.1687173863    1.8608435178   -1.8643968877
H       -0.9267173604    0.1539079835    0.0300369532
H       -0.2907166829    0.8124329284   -4.2294039815
H       -3.8078221811   -2.7936916432   -1.3710005420
H       -3.5978312928   -1.7472775593    0.0549526698
H       -3.4046895757   -3.5117208473    0.2092583044
14   

C       -0.4076487101    0.8153501339   -2.0198481889
C       -0.7440421611   -0.0978614223   -0.9381253719
C       -0.6851208183    0.2832451296   -3.2532392539
C       -1.2369854488   -1.2979385216   -1.3913625990
C       -1.7865034570   -2.4130662445   -0.5485148739
C       -3.2534179266   -2.7944070419   -0.6762890539
O       -1.0475526772   -3.1403789562    0.0954182174
S       -1.3539669937   -1.3418512952   -3.1490884168
H        0.0114388366    1.8039469132   -1.8644081588
H       -0.6261349975    0.1430807917    0.1137090763
H       -0.5117782224    0.7962051328   -4.1919720496
H       -3.5480460987   -2.8230506091   -1.7279258297
H       -3.8664028014   -2.0557157041   -0.1534185083
H       -3.4253091722   -3.7787298203   -0.2319367906
14   

C       -0.3297919738    0.7853784886   -2.0242358408
C       -0.6382617849   -0.1261216702   -0.9330614708
C       -0.7584377456    0.3075161003   -3.2360617690
C       -1.2578311543   -1.2794122889   -1.3598061234
C       -1.8276026026   -2.3393563969   -0.4745410517
C       -3.2384270251   -2.8552835921   -0.7184025736
O       -1.1176405569   -2.9397640343    0.3196301895
S       -1.5395930683   -1.2641396422   -3.1005008854
H        0.1764274308    1.7354642373   -1.8893311176
H       -0.4155802585    0.0813282760    0.1091217444
H       -0.6319416213    0.8301551064   -4.1769368735
H       -3.3779083289   -3.1048168451   -1.7726690753
H       -3.9603614419   -2.0861505024   -0.4316937132
H       -3.4179382369   -3.7511277203   -0.1173134089
14   

C       -0.2647010292    0.7737388412   -2.0497159139
C       -0.5570472603   -0.1356684096   -0.9524829017
C       -0.8238301392    0.3581741322   -3.2309975814
C       -1.3000820959   -1.2283284570   -1.3470606837
C       -1.8651163358   -2.2571847922   -0.4338124941
C       -3.2149374963   -2.8929964738   -0.7337063316
O       -1.1824790589   -2.7286443510    0.4671185346
S       -1.7145038034   -1.1506403112   -3.0597689501
H        0.3240027283    1.6784257038   -1.9398272550
H       -0.2362347234    0.0278429017    0.0719939952
H       -0.7307529854    0.8911810709   -4.1699501510
H       -3.2312976726   -3.2895775114   -1.7515548819
H       -4.0030426768   -2.1434540031   -0.6237660459
H       -3.4053026442   -3.7116392395   -0.0339048728
14   

C       -0.2137574732    0.7509424324   -2.0810933801
C       -0.5107853899   -0.1501515131   -0.9782809578
C       -0.8788733974    0.4034070047   -3.2290950045
C       -1.3729220135   -1.1669913658   -1.3360935539
C       -1.9360842633   -2.1781790101   -0.4091852739
C       -3.2262288428   -2.9092161581   -0.7516566364
O       -1.3019172712   -2.5312447509    0.5789154469
S       -1.8816471004   -1.0284045055   -3.0194649438
H        0.4548296954    1.6013749002   -1.9983682581
H       -0.1073201383   -0.0367780084    0.0236814184
H       -0.8003303838    0.9431406996   -4.1655234498
H       -3.1513082316   -3.3661765775   -1.7413496655
H       -4.0607705224   -2.2032661401   -0.7391284583
H       -3.4160558584   -3.6949997799   -0.0150054116
14   

C       -0.1762592923    0.7332293697   -2.1015453750
C       -0.4698753351   -0.1626618289   -0.9935717124
C       -0.9431258090    0.4622517043   -3.2060017438
C       -1.4424016995   -1.0931795458   -1.3023089839
C       -1.9927736353   -2.1044403436   -0.3714735702
C       -3.2306188337   -2.9085832325   -0.7412622969
O       -1.4132207524   -2.3549658378    0.6803912698
S       -2.0445311156   -0.8868226063   -2.9474878161
H        0.5642079981    1.5247328182   -2.0534983996
H        0.0166160357   -0.1090447724   -0.0239214885
H       -0.8834507236    1.0116447740   -4.1381938670
H       -3.0722464012   -3.4250569791   -1.6912819583
H       -4.0907967289   -2.2398101853   -0.8292165107
H       -3.4374012049   -3.6518373682    0.0339549072
14   

C       -0.1398066357    0.6900776748   -2.1089646456
C       -0.4399870213   -0.2006549647   -0.9985703237
C       -0.9905634689    0.5043688219   -3.1687924643
C       -1.5113528857   -1.0332458531   -1.2567245076
C       -2.0595452104   -2.0468075813   -0.3281696986
C       -3.2471366316   -2.9084360132   -0.7313763193
O       -1.5579644205   -2.2042578899    0.7805844471
S       -2.1843065553   -0.7532482881   -2.8630562677
H        0.6659967238    1.4164068101   -2.0948130658
H        0.1140036104   -0.2147924215   -0.0643690176
H       -0.9405863189    1.0649885906   -4.0948497208
H       -3.0058455043   -3.4743284565   -1.6348292148
H       -4.1173844866   -2.2745641403   -0.9200966884
H       -3.4878392363   -3.6106361619    0.0718238694
14   

C       -0.1157399015    0.6562634782   -2.1057691000
C       -0.4080271488   -0.2373615760   -0.9956183574
C       -1.0562115722    0.5735422489   -3.1007479899
C       -1.5708550505   -0.9584949081   -1.1821617379
C       -2.1055814874   -1.9836147615   -0.2573902270
C       -3.2543446277   -2.8878343327   -0.6798489158
O       -1.6743232407   -2.0663163370    0.8881755346
S       -2.3297514831   -0.5842793504   -2.7300224229
H        0.7497210383    1.3097012861   -2.1385483668
H        0.2182721610   -0.3350501672   -0.1135876784
H       -1.0268589963    1.1532991614   -4.0158413129
H       -2.9306772652   -3.5344017593   -1.4996612665
H       -4.1060049455   -2.2854361976   -1.0056131327
H       -3.5660432855   -3.5122484599    0.1622294690
14   

C       -0.0996298139    0.6145465906   -2.1190381596
C       -0.3999016519   -0.2788660712   -1.0108762343
C       -1.1011112748    0.6345096386   -3.0558674759
C       -1.6328272759   -0.8873203105   -1.1334554190
C       -2.1730206403   -1.9205873837   -0.2173056566
C       -3.2577897052   -2.8800511112   -0.6852783294
O       -1.8476585908   -1.9289745745    0.9647551831
S       -2.4445338970   -0.4199812362   -2.6283211455
H        0.8150984640    1.1932386080   -2.1930369204
H        0.2723407029   -0.4587692125   -0.1770355073
H       -1.0772194436    1.2311280184   -3.9602212899
H       -2.8484619067   -3.5525442573   -1.4436887414
H       -4.0987184302   -2.3246591622   -1.1074902166
H       -3.6180349379   -3.4753120530    0.1585408759
14   

C       -0.0774864013    0.5527855423   -2.1178010532
C       -0.3906852830   -0.3332301495   -1.0072601032
C       -1.1242380119    0.6746537355   -2.9954094915
C       -1.6771755629   -0.8264753962   -1.0631013315
C       -2.2433077816   -1.8538892055   -0.1488016513
C       -3.2382223327   -2.8812379524   -0.6692750575
O       -2.0537401969   -1.7811944517    1.0589874196
S       -2.5268027028   -0.2694956159   -2.5049957924
H        0.8778608909    1.0531296034   -2.2364314935
H        0.3122388620   -0.5907481730   -0.2206279341
H       -1.1004111956    1.2837222285   -3.8914335931
H       -2.7336904638   -3.5569563000   -1.3648785156
H       -4.0652646095   -2.3845417840   -1.1819724281
H       -3.6403044130   -3.4659592713    0.1629306713
14   

C       -0.0683469343    0.4832955016   -2.1269848967
C       -0.3906636079   -0.4092954432   -1.0242410757
C       -1.1523772242    0.7269995095   -2.9307939353
C       -1.7159660733   -0.7826698754   -1.0095420520
C       -2.3234443515   -1.7980050239   -0.0974803990
C       -3.2064669907   -2.8988722253   -0.6670429385
O       -2.2862138867   -1.6511708156    1.1159005964
S       -2.6009098764   -0.1053960589   -2.3762099068
H        0.9189032088    0.9012964328   -2.2935160448
H        0.3351752166   -0.7554830259   -0.2948023441
H       -1.1300028412    1.3618237717   -3.8088009218
H       -2.5872705404   -3.6120821795   -1.2173923221
H       -3.9561523666   -2.4779977829   -1.3408730618
H       -3.7173027501   -3.4254845044    0.1440039421
14   

C       -0.0589788486    0.4168979600   -2.1765494890
C       -0.3938758657   -0.4943642497   -1.0927200614
C       -1.1638043689    0.7964161457   -2.8953754260
C       -1.7418161475   -0.7495755374   -1.0120213468
C       -2.4115914334   -1.7288531260   -0.0910236035
C       -3.1377370386   -2.9302512367   -0.6766124951
O       -2.5471705920   -1.4862142054    1.0974299167
S       -2.6463464174    0.0722908265   -2.2814888253
H        0.9503125037    0.7527543147   -2.3902106286
H        0.3403665328   -0.9321334264   -0.4237226209
H       -1.1375784767    1.4690758563   -3.7446315472
H       -2.4050854692   -3.6764253845   -0.9948156223
H       -3.7374445919   -2.6282512973   -1.5384233305
H       -3.7951009293   -3.3747545687    0.0758376616
14   

C       -0.6052818373    1.0091775654   -2.0888250468
C       -1.1464987589    0.3438660674   -0.9131341308
C       -0.5009999839    0.1617973562   -3.1629390119
C       -1.4240385114   -0.9810423145   -1.1402192483
C       -2.0007126556   -1.9753138371   -0.1647514271
C       -1.0666036138   -2.7431395202    0.7553401267
O       -3.2050976050   -2.1360297022   -0.0667222928
S       -1.0528724897   -1.4682728460   -2.7903980191
H       -0.3229344323    2.0564798757   -2.1116275648
H       -1.3201670831    0.8423494395    0.0351358289
H       -0.1268006788    0.4543464401   -4.1369702997
H       -0.4168954168   -2.0439660034    1.2878841327
H       -0.4504965497   -3.4257198081    0.1644931740
H       -1.6451406627   -3.3198269083    1.4824537546
14   

C       -0.4871543164    0.9742211485   -2.0568033375
C       -0.9474172067    0.2149028808   -0.9040266189
C       -0.5328199460    0.2392091240   -3.2143031044
C       -1.2838391138   -1.0800864315   -1.2256654796
C       -1.9347339465   -2.0913443136   -0.3261043314
C       -1.2142315675   -2.5312456810    0.9386402066
O       -3.1124617685   -2.3836764894   -0.4572348947
S       -1.1222723408   -1.3987445739   -2.9496634187
H       -0.1610380510    2.0077519678   -2.0066104787
H       -1.0425169579    0.6359851243    0.0915697250
H       -0.2461587228    0.6164943336   -4.1888617844
H       -0.6272883788   -1.7045655246    1.3462123842
H       -0.5433349815   -3.3611339351    0.7019863099
H       -1.9386070705   -2.8592731654    1.6892017805
14   

C       -0.4234990934    0.9296278461   -2.0361253628
C       -0.8243100039    0.1375057862   -0.8833355230
C       -0.6092327948    0.2582292297   -3.2177554096
C       -1.2573627321   -1.1247078004   -1.2333179558
C       -1.8960043232   -2.1382527483   -0.3434972628
C       -1.2762761006   -2.4418399683    1.0128229819
O       -3.0198234132   -2.5627668352   -0.5726440856
S       -1.2616401746   -1.3595422862   -2.9790499233
H       -0.0383937889    1.9416012523   -1.9677226201
H       -0.8127898626    0.5184453194    0.1324751542
H       -0.3881074818    0.6699704318   -4.1954260948
H       -0.8262726400   -1.5427133717    1.4395229134
H       -0.5021961187   -3.2042704295    0.8929241295
H       -2.0412410864   -2.8152408435    1.6992619148
14   

C       -0.3897662252    0.8964937438   -2.0364351638
C       -0.7374800805    0.0719919908   -0.8891600050
C       -0.6982547567    0.2884814075   -3.2263109933
C       -1.2639674749   -1.1519888433   -1.2544037807
C       -1.8611434866   -2.1918134354   -0.3796199062
C       -1.3066648160   -2.4141911183    1.0204042860
O       -2.9082092892   -2.7510237967   -0.6832084283
S       -1.4082450431   -1.3068972520   -3.0042623819
H        0.0496705293    1.8852848156   -1.9572059963
H       -0.6173708018    0.4058994884    0.1358856893
H       -0.5325318031    0.7328923457   -4.2006326203
H       -1.1010100090   -1.4592229666    1.5085556278
H       -0.3808239803   -2.9917319036    0.9556041071
H       -2.0297516163   -2.9690344470    1.6248425595
14   

C       -0.3436589961    0.8790896296   -2.0286630291
C       -0.6420081041    0.0209014014   -0.8923394750
C       -0.8080610139    0.3586914895   -3.2092306076
C       -1.3014107853   -1.1379791521   -1.2575414775
C       -1.8598170092   -2.1968289221   -0.3906537969
C       -1.3224494347   -2.3826866253    1.0205372554
O       -2.8383137072   -2.8506162734   -0.7374369261
S       -1.6140575464   -1.1910152113   -2.9923719109
H        0.1774032055    1.8272794992   -1.9478778015
H       -0.3864551981    0.2817780955    0.1292306212
H       -0.7000398296    0.8402041986   -4.1739842453
H       -1.4110829097   -1.4492780236    1.5815312113
H       -0.2717787465   -2.6810178934    0.9755715386
H       -1.8905944866   -3.1615048699    1.5371010238
14   

C       -0.3115283680    0.8590296361   -2.0500534225
C       -0.5657069667   -0.0318939899   -0.9283241354
C       -0.8765373600    0.4042412182   -3.2135057535
C       -1.3066916913   -1.1437342377   -1.2849035480
C       -1.8115499548   -2.2397516592   -0.4379145525
C       -1.3208431163   -2.3805464217    0.9951791639
O       -2.6770608332   -3.0098379120   -0.8449375615
S       -1.7314762789   -1.1188774789   -2.9972358586
H        0.2557329673    1.7805533691   -1.9718957264
H       -0.2147697439    0.1694638678    0.0783660630
H       -0.8124287112    0.9173055373   -4.1658362544
H       -1.5464752766   -1.4704375393    1.5565355479
H       -0.2412364595   -2.5516611481    0.9988093849
H       -1.8163036914   -3.2274970875    1.4782684787
14   

C       -0.3066924490    0.8648430737   -2.0602560982
C       -0.5085707788   -0.0624512893   -0.9575424371
C       -0.9773836825    0.4801447675   -3.1923659345
C       -1.3294720944   -1.1237153871   -1.2930204723
C       -1.7724029326   -2.2610624425   -0.4683687259
C       -1.3152676163   -2.3771666462    0.9779159797
O       -2.5113566758   -3.1274156332   -0.9287933249
S       -1.8767144757   -1.0158054922   -2.9672974471
H        0.3050277869    1.7583412931   -1.9927381239
H       -0.0581449356    0.0739021388    0.0200627864
H       -0.9631961662    1.0275635228   -4.1274654194
H       -1.6493067448   -1.5027442024    1.5422324693
H       -0.2247666635   -2.4400414109    1.0167037131
H       -1.7394382922   -3.2768274776    1.4327452757
