19   

C        0.2864808700   -1.1772538858    0.6306168389
C        2.6540219497   -0.7929957161    0.4992576835
C        0.4332618002   -1.4124012887    2.0070462793
C        2.7312117596   -1.0392475607    1.8820598575
C        1.4104712069   -0.8736013174   -0.1498429341
C        1.1656998246   -0.5942062121   -1.6246463529
C        1.7511255367   -1.5777989180    4.0553904751
N        1.6375980182   -1.3482148023    2.6069731269
N        2.2551292836   -0.6108878080   -2.4426087570
O        0.0691137300   -0.3360475811   -2.0815489615
H       -0.6983177890   -1.2244686269    0.1671162467
H        3.5534077792   -0.5247732083   -0.0471073818
H       -0.4534989619   -1.6475737905    2.5902220349
H        3.6993825324   -0.9710952060    2.3716169553
H        1.8694539124   -2.6461864413    4.2645368754
H        2.6126424699   -1.0390075059    4.4625868005
H        0.8583368543   -1.2095730384    4.5711416366
H        2.0619584790   -0.4313956326   -3.4240463302
H        3.1575126677   -0.9539050642   -2.1441160324
19   

C        0.3036069957   -1.1998505692    0.6072979876
C        2.6520257028   -0.7028112585    0.5144607334
C        0.4459906367   -1.4615116212    1.9796380305
C        2.7260337409   -0.9786635854    1.8916046723
C        1.4219075580   -0.8248216757   -0.1501957205
C        1.1976617185   -0.5066853582   -1.6174457621
C        1.7469207761   -1.6094719086    4.0404125157
N        1.6397370480   -1.3556019714    2.5955704770
N        2.2370359440   -0.7602820158   -2.4587974403
O        0.1561207690   -0.0526546231   -2.0482759507
H       -0.6714310645   -1.2736429919    0.1272919528
H        3.5389641986   -0.3753533323   -0.0214885277
H       -0.4353820026   -1.7493256272    2.5471596522
H        3.6843979748   -0.8750831935    2.3940850858
H        1.8991741301   -2.6770767412    4.2305664281
H        2.5860149505   -1.0503109675    4.4665723370
H        0.8375150655   -1.2807424329    4.5538502606
H        2.0593152659   -0.5701632450   -3.4411021208
H        3.0554029551   -1.2775962931   -2.1664454996
19   

C        0.3257686691   -1.2238159584    0.5927635433
C        2.6511467858   -0.6260437029    0.5365184999
C        0.4658908579   -1.5109195402    1.9604885248
C        2.7243418521   -0.9298986671    1.9075717679
C        1.4341119301   -0.7802619666   -0.1424254813
C        1.2309157939   -0.4273175026   -1.6034517451
C        1.7508288894   -1.6447032876    4.0324734160
N        1.6479845665   -1.3674687794    2.5916114432
N        2.1631952416   -0.8982640296   -2.4724962612
O        0.2754040020    0.2048633680   -2.0064158162
H       -0.6398626814   -1.3235153966    0.0992970634
H        3.5261469581   -0.2511978004    0.0110480107
H       -0.4078092350   -1.8477410916    2.5126981808
H        3.6729622428   -0.7970651951    2.4215417371
H        1.9347899621   -2.7103110251    4.2047470996
H        2.5685366396   -1.0677820853    4.4762136938
H        0.8274577976   -1.3533236716    4.5435823049
H        1.9936724125   -0.6954388384   -3.4536204744
H        2.8917777647   -1.5396884963   -2.1866754861
19   

C        0.3586359055   -1.2687973475    0.5748070860
C        2.6563022777   -0.5739705242    0.5556589499
C        0.4967719556   -1.5755921993    1.9387665817
C        2.7290294795   -0.8998396974    1.9213615984
C        1.4538003414   -0.7611299479   -0.1387378690
C        1.2674855389   -0.3691497741   -1.5917339724
C        1.7624178836   -1.6847298608    4.0243173648
N        1.6647878914   -1.3930564125    2.5859388002
N        2.0351645654   -1.0228903143   -2.4987149654
O        0.4434727331    0.4446711499   -1.9555250210
H       -0.5973415693   -1.3970081810    0.0701158387
H        3.5189387152   -0.1542764111    0.0432336809
H       -0.3675595622   -1.9578540843    2.4759249740
H        3.6662977122   -0.7363197510    2.4471815286
H        1.9836229953   -2.7448561795    4.1859226967
H        2.5535475653   -1.0836776799    4.4840028244
H        0.8237266115   -1.4331817612    4.5286881138
H        1.8721576141   -0.7858853995   -3.4731606093
H        2.6589415639   -1.7753469848   -2.2352610237
19   

C        0.4140868393   -1.3083822636    0.5436590505
C        2.6818431594   -0.5288085847    0.5864198885
C        0.5350794608   -1.6334983096    1.9054163786
C        2.7392555635   -0.8746139342    1.9474927337
C        1.5026591056   -0.7457761842   -0.1378624091
C        1.3479185484   -0.3091795893   -1.5821885613
C        1.7573231071   -1.7218416867    4.0182261438
N        1.6808590557   -1.4174120828    2.5812162390
N        1.9106401949   -1.1033772470   -2.5239326096
O        0.7258310829    0.6808036370   -1.9071766860
H       -0.5268162213   -1.4625290353    0.0191157877
H        3.5372295932   -0.0665353958    0.0986771256
H       -0.3252936117   -2.0559040305    2.4183029872
H        3.6585538306   -0.6833454374    2.4952272452
H        2.0299313408   -2.7707664042    4.1739101225
H        2.5035030962   -1.0853588979    4.5047248710
H        0.7943722531   -1.5258631636    4.5010617164
H        1.7793171997   -0.8152925176   -3.4892861601
H        2.3936237478   -1.9613882527   -2.2879906955
19   

C        0.8825351905   -0.0594729013    0.7027870194
C        2.4974876930   -1.8105425444    0.4435266783
C        0.8098264875   -0.3752184099    2.0707935830
C        2.3821296623   -2.0771121351    1.8180614359
C        1.7380838303   -0.7861865318   -0.1357525593
C        1.9094634904   -0.3965973490   -1.5921232880
C        1.4920441645   -1.6396264133    4.0487085424
N        1.5494141266   -1.3676747992    2.6043223798
N        1.0642500478   -0.9669575755   -2.4828358982
O        2.7585830511    0.3846242195   -1.9677513088
H        0.3002263712    0.7642843010    0.2954143070
H        3.1971232771   -2.3732569855   -0.1709487557
H        0.1497362405    0.2099321939    2.7060179240
H        2.9937005082   -2.8658706503    2.2489129296
H        0.8032646555   -2.4649961667    4.2563534130
H        2.4865677111   -1.8979738510    4.4270909893
H        1.1548371605   -0.7513467696    4.5924579655
H        1.1917615610   -0.7018782564   -3.4552456226
H        0.3517732253   -1.6296995200   -2.2028472102
19   

C        0.8746126593   -0.1262219122    0.6757125567
C        2.5629254066   -1.8120429984    0.4758920291
C        0.7854047548   -0.4270136333    2.0465868789
C        2.4299762522   -2.0659538392    1.8507262422
C        1.7751244053   -0.8284857026   -0.1353722821
C        1.9775249397   -0.4608081465   -1.5933599693
C        1.4762548984   -1.6367476339    4.0560164548
N        1.5526582271   -1.3814931223    2.6094770108
N        0.9964967806   -0.8231676166   -2.4546216147
O        2.9755959251    0.0977514422   -1.9991861967
H        0.2678208677    0.6683875897    0.2472251458
H        3.2989983366   -2.3511394795   -0.1173256179
H        0.0891413291    0.1387290028    2.6604130896
H        3.0647812662   -2.8232092308    2.3039172057
H        0.8138805459   -2.4840301715    4.2612966831
H        2.4717365992   -1.8541668605    4.4569865849
H        1.0967130441   -0.7544047065    4.5811754135
H        1.1561991921   -0.6012738265   -3.4331128488
H        0.1845205748   -1.3495526414   -2.1568176390
19   

C        0.8464008206   -0.1789808379    0.6543208252
C        2.6033872131   -1.7947608361    0.4966859441
C        0.7550957098   -0.4646010992    2.0287796547
C        2.4673341413   -2.0359789470    1.8729830084
C        1.7824719591   -0.8539114350   -0.1385412639
C        1.9917886041   -0.5166036486   -1.6026124916
C        1.4718643001   -1.6203820162    4.0616031479
N        1.5545602898   -1.3788832769    2.6130644463
N        0.9146193507   -0.6557219641   -2.4166198162
O        3.0671675578   -0.1818425367   -2.0556678340
H        0.2110062217    0.5845643636    0.2115307570
H        3.3664147602   -2.3110515138   -0.0832556474
H        0.0294896945    0.0795541370    2.6279496645
H        3.1280857064   -2.7608457335    2.3418029056
H        0.8618788365   -2.5058658419    4.2681205189
H        2.4729035024   -1.7685551170    4.4799973107
H        1.0279665024   -0.7582268958    4.5694469292
H        1.0773203256   -0.4729479912   -3.4027665921
H        0.0390799042   -1.0446970217   -2.0899207707
19   

C        0.8337299207   -0.2572101957    0.6146948343
C        2.6586812356   -1.7967022386    0.5123937570
C        0.7436827783   -0.5118199335    1.9957353351
C        2.5226831577   -2.0097737281    1.8928644526
C        1.8039498565   -0.9090017770   -0.1557662292
C        2.0105067482   -0.6317080283   -1.6332822940
C        1.4877250773   -1.5893116492    4.0617792778
N        1.5761133445   -1.3757878690    2.6092102494
N        0.8853041779   -0.5576089552   -2.3938100279
O        3.1080838906   -0.5093541757   -2.1385121483
H        0.1671410447    0.4671949291    0.1532031818
H        3.4450146040   -2.2980853648   -0.0498900806
H       -0.0103311114    0.0139786847    2.5759213130
H        3.2093528235   -2.6953013757    2.3831362024
H        0.8965956349   -2.4843440651    4.2817642356
H        2.4884766420   -1.7066920208    4.4904401638
H        1.0206889871   -0.7272597826    4.5485663422
H        1.0365572767   -0.4167112567   -3.3887241066
H       -0.0264940538   -0.8057621920   -2.0321521220
19   

C        0.8162636401   -0.3239022777    0.6050655645
C        2.7142628009   -1.7707598149    0.5548170237
C        0.7247297591   -0.5533510146    1.9907952273
C        2.5752131591   -1.9619566870    1.9377111736
C        1.8253951989   -0.9403409831   -0.1446399812
C        2.0329836365   -0.7216045589   -1.6332575127
C        1.4933331314   -1.5550749109    4.0858521267
N        1.5912450790   -1.3618679680    2.6310803918
N        0.9233674615   -0.4361053863   -2.3689174360
O        3.1218909015   -0.7914867224   -2.1676297228
H        0.1145929780    0.3557557046    0.1291675607
H        3.5264273946   -2.2520751839    0.0114934196
H       -0.0615295827   -0.0554234972    2.5524662642
H        3.2881147388   -2.6051889230    2.4474691833
H        0.9179201028   -2.4584023823    4.3137099003
H        2.4919357306   -1.6472570665    4.5254511350
H        1.0054164144   -0.6949309712    4.5551795069
H        1.0811073071   -0.3224694366   -3.3663853986
H       -0.0119052042   -0.5304870555   -1.9963519793
19   

C        0.7842931523   -0.3873911720    0.5957805507
C        2.7528477273   -1.7329395871    0.5777372444
C        0.7062020901   -0.5877395569    1.9871724415
C        2.6256612527   -1.8983989891    1.9646833131
C        1.8227128695   -0.9666135046   -0.1441015965
C        2.0156619535   -0.8104768409   -1.6451238941
C        1.5195417863   -1.5072966674    4.1029942471
N        1.6127812706   -1.3347468189    2.6453451855
N        0.9601305889   -0.3259944160   -2.3572048916
O        3.0589757027   -1.0743808336   -2.2099935157
H        0.0392527582    0.2374854726    0.1127396888
H        3.5846774088   -2.1942121876    0.0466023070
H       -0.1064760727   -0.1212817229    2.5381421781
H        3.3692998475   -2.4952779267    2.4867667943
H        0.9747652347   -2.4259937241    4.3446294747
H        2.5199614476   -1.5594407829    4.5449277738
H        1.0022004950   -0.6567136839    4.5579341167
H        1.1160340987   -0.2434842702   -3.3580528293
H        0.0349788656   -0.2221444005   -1.9648833275
19   

C        0.7330929598   -0.5094652467    0.5954289073
C        2.8006309889   -1.6905372454    0.6002608408
C        0.6804945313   -0.6719508374    1.9930509362
C        2.6974788293   -1.8231422381    1.9925294107
C        1.8080301234   -1.0241175393   -0.1405108236
C        1.9867015621   -0.9252420445   -1.6510636572
C        1.5732268977   -1.4671392526    4.1272173869
N        1.6480819344   -1.3223414843    2.6655147499
N        1.0220090917   -0.2819136544   -2.3565450078
O        2.9424193132   -1.3968356284   -2.2359758494
H       -0.0756009666    0.0201285874    0.1023191978
H        3.6606318319   -2.1092714382    0.0787416267
H       -0.1670788001   -0.2618006395    2.5361645347
H        3.4883307307   -2.3463199430    2.5242017084
H        1.1022150215   -2.4195962008    4.3923535843
H        2.5760226159   -1.4317312800    4.5653226450
H        0.9924836507   -0.6491516442    4.5650007659
H        1.1764434618   -0.2360877438   -3.3599274181
H        0.2085581265    0.1413669475   -1.9341707071
19   

C        0.6829829777   -0.5837034880    0.5767173092
C        2.8342370293   -1.6123948926    0.5912106233
C        0.6519251254   -0.7171944574    1.9779328074
C        2.7490790188   -1.7195504564    1.9870805250
C        1.7898761614   -1.0371292503   -0.1516997739
C        1.9236473073   -0.9700900334   -1.6656918770
C        1.6088223480   -1.4071670741    4.1206515423
N        1.6694447114   -1.2802316762    2.6566354455
N        1.0517816957   -0.1596717989   -2.3282856543
O        2.7443307136   -1.6158446032   -2.2875584161
H       -0.1724742930   -0.1447752131    0.0723619422
H        3.7130778401   -1.9865456674    0.0673189138
H       -0.2226459070   -0.3636237410    2.5180452964
H        3.5767091054   -2.1759447631    2.5242543804
H        1.1894047664   -2.3791160253    4.4015157084
H        2.6102218458   -1.3139260470    4.5532837302
H        0.9879595557   -0.6143628029    4.5495873102
H        1.1732245351   -0.1279403745   -3.3367777294
H        0.4468791159    0.4977390272   -1.8566037199
19   

C        0.6472606038   -0.6382504817    0.5718442822
C        2.8506520304   -1.5566993193    0.5829183433
C        0.6358805839   -0.7451776236    1.9752969419
C        2.7830020498   -1.6403997042    1.9817469362
C        1.7707157047   -1.0494969952   -0.1556935997
C        1.8566075560   -1.0280604318   -1.6719123050
C        1.6421643846   -1.3555883016    4.1193815620
N        1.6875434235   -1.2434209382    2.6536081825
N        1.1315717341   -0.0691699481   -2.3111899880
O        2.5293677943   -1.8144073097   -2.3084877244
H       -0.2334489267   -0.2621389507    0.0584198052
H        3.7366753663   -1.9040646751    0.0530422685
H       -0.2522339757   -0.4294580481    2.5167756201
H        3.6353931996   -2.0478085241    2.5195768539
H        1.2801800477   -2.3464988136    4.4138384281
H        2.6387851281   -1.2004665387    4.5451089842
H        0.9787089636   -0.5949244316    4.5426582740
H        1.2267032359   -0.0552734807   -3.3228693202
H        0.6953431255    0.6982023079   -1.8179596245
19   

C        0.6014738179   -0.6848093845    0.5733265652
C        2.8485865748   -1.4980145788    0.5644416072
C        0.6120303283   -0.7771218021    1.9774263779
C        2.8007399915   -1.5700950253    1.9652010846
C        1.7363018109   -1.0493131697   -0.1613831732
C        1.7729551764   -1.0606300802   -1.6783900612
C        1.6695333717   -1.3251342287    4.1134325565
N        1.6948752687   -1.2185883946    2.6467437894
N        1.2317293030    0.0176403587   -2.3048139555
O        2.2797341284   -1.9574642264   -2.3216811061
H       -0.2994403184   -0.3591281692    0.0592113341
H        3.7393500527   -1.8157660643    0.0245883455
H       -0.2844179692   -0.5000912511    2.5263087555
H        3.6760705439   -1.9344280215    2.4970458724
H        1.3641787024   -2.3326273738    4.4158720629
H        2.6601633921   -1.1142814990    4.5289650644
H        0.9694363287   -0.5996749567    4.5394632877
H        1.3028965232    0.0177803422   -3.3184728597
H        0.9402765549    0.8443594553   -1.7995046962
19   

C        0.5489804597   -0.7298392462    0.5887153710
C        2.8322617614   -1.4421552134    0.5511548515
C        0.5842200911   -0.8093200698    1.9927900930
C        2.8071168554   -1.5040430866    1.9534611516
C        1.6894155486   -1.0497851109   -0.1579476132
C        1.6767117763   -1.0897704077   -1.6743369146
C        1.6944134185   -1.2987069832    4.1159309994
N        1.6958232952   -1.1969851201    2.6486744146
N        1.3504569205    0.0655163354   -2.3068449263
O        1.9826243315   -2.0766137793   -2.3117802465
H       -0.3708524013   -0.4499132791    0.0804672587
H        3.7262150963   -1.7294688943    0.0003422425
H       -0.3162504897   -0.5690553919    2.5523138757
H        3.7042018840   -1.8265552385    2.4759686130
H        1.4505022339   -2.3208055541    4.4252390078
H        2.6761648144   -1.0298865147    4.5187871088
H        0.9585995928   -0.6133201932    4.5480650762
H        1.3903690706    0.0420886147   -3.3218433952
H        1.2059230521    0.9324658909   -1.8047436041
19   

C        0.5131956429   -0.7853518027    0.5900599198
C        2.8294063832   -1.3886018384    0.5326399532
C        0.5642167537   -0.8596134774    1.9934571132
C        2.8180624814   -1.4480212175    1.9357481154
C        1.6620386824   -1.0535442097   -0.1651374088
C        1.6181017617   -1.1039379735   -1.6807218320
C        1.7130477714   -1.2943922799    4.1071677459
N        1.6987368638   -1.1930205075    2.6399440007
N        1.5313937130    0.0847768965   -2.3243078096
O        1.6923294059   -2.1397769060   -2.3087081066
H       -0.4219578375   -0.5507308319    0.0864479732
H        3.7314280383   -1.6358081841   -0.0237583133
H       -0.3422452112   -0.6614530442    2.5597746163
H        3.7330384858   -1.7269705158    2.4522494180
H        1.5061826171   -2.3241058097    4.4182874713
H        2.6884269603   -0.9928624145    4.5021652315
H        0.9580994661   -0.6340485688    4.5452987699
H        1.5352345551    0.0448686450   -3.3394839329
H        1.5364875909    0.9679042574   -1.8291970891
19   

C        0.4518254305   -0.8326955226    0.6055454010
C        2.7941009695   -1.3294020858    0.5126717124
C        0.5251577820   -0.9115605355    2.0072385803
C        2.8032908642   -1.3959359593    1.9159779629
C        1.6020626343   -1.0457351341   -0.1658178352
C        1.5232931668   -1.0813211708   -1.6804713514
C        1.7208210711   -1.3026575139    4.1027838034
N        1.6825756376   -1.1960198843    2.6363481550
N        1.6867989800    0.0963651955   -2.3278136760
O        1.3280548845   -2.1028668266   -2.3055593610
H       -0.4987515284   -0.6380040918    0.1135144979
H        3.7002144864   -1.5301851087   -0.0550922420
H       -0.3819640430   -0.7574468593    2.5860633179
H        3.7364469161   -1.6344195918    2.4200686986
H        1.5560813307   -2.3404728193    4.4121149249
H        2.6896873461   -0.9670264532    4.4860780203
H        0.9481792584   -0.6721278107    4.5538702423
H        1.6372335553    0.0613844376   -3.3419290791
H        1.8614073808    0.9634803726   -1.8349933377
19   

C        0.3931385634   -0.8818916160    0.6274668863
C        2.7557405026   -1.2729509852    0.4987547067
C        0.4888743766   -0.9668721334    2.0269908399
C        2.7857282497   -1.3481156109    1.9018185646
C        1.5418869119   -1.0388317979   -0.1599579249
C        1.4265773757   -1.0511547745   -1.6722924499
C        1.7290355579   -1.3141415468    4.1036141380
N        1.6665400431   -1.2031204063    2.6383266275
N        1.8338877066    0.0633290987   -2.3254812437
O        0.9640986643   -1.9883897619   -2.2890493370
H       -0.5707317983   -0.7259001237    0.1470366439
H        3.6634053155   -1.4262513489   -0.0808227837
H       -0.4165902286   -0.8565849571    2.6182932576
H        3.7349245656   -1.5465467194    2.3931492018
H        1.5979223496   -2.3572500477    4.4111367918
H        2.6934746028   -0.9528969337    4.4745492705
H        0.9457378588   -0.7068263164    4.5680704081
H        1.7288471162    0.0537098879   -3.3359366241
H        2.1784358379    0.8800924683   -1.8362790301
19   

C        0.3518106705   -0.9386928560    0.6377288666
C        2.7300207900   -1.2230558710    0.4859130620
C        0.4622265568   -1.0358686813    2.0349805268
C        2.7733348791   -1.3131122198    1.8881576241
C        1.5007851523   -1.0331784360   -0.1593680248
C        1.3553691648   -1.0125911170   -1.6685540578
C        1.7333339150   -1.3437623379    4.0984946667
N        1.6543221871   -1.2254815269    2.6345663169
N        1.9901232788   -0.0074403715   -2.3222986621
O        0.6712142074   -1.8090653200   -2.2777985503
H       -0.6209520035   -0.8184186398    0.1641534930
H        3.6399865158   -1.3278276756   -0.1004857052
H       -0.4428211143   -0.9717505084    2.6336950706
H        3.7338049050   -1.4737448961    2.3713205061
H        1.6377556259   -2.3922482210    4.4006170905
H        2.6891017199   -0.9545122620    4.4635022172
H        0.9356748976   -0.7637504830    4.5733971616
H        1.8515105823    0.0266318094   -3.3282413298
H        2.4828539221    0.7283430897   -1.8318348729
19   

C        0.3184063248   -0.9777770014    0.6439296675
C        2.7068330891   -1.1577393597    0.4766234726
C        0.4394148181   -1.0967070804    2.0382862656
C        2.7596752599   -1.2723788258    1.8770761267
C        1.4666209824   -1.0034574849   -0.1592368842
C        1.2932275498   -0.9452966304   -1.6647278276
C        1.7321945983   -1.3796156647    4.0913313989
N        1.6414005905   -1.2449571537    2.6294914656
N        2.1196299037   -0.0970819657   -2.3325405549
O        0.4460424978   -1.5795516330   -2.2605388793
H       -0.6608773287   -0.8876284923    0.1762478886
H        3.6191912479   -1.2147394264   -0.1121231924
H       -0.4649738276   -1.0814106166    2.6412313713
H        3.7279082429   -1.4007912103    2.3543293213
H        1.6667374813   -2.4338756765    4.3809419683
H        2.6791542326   -0.9691323565    4.4560544211
H        0.9222015279   -0.8267351891    4.5776906804
H        1.9658273618   -0.0295944535   -3.3346783954
H        2.7368291452    0.5443918581   -1.8513374132
19   

C        0.2906643052   -1.0117295798    0.6577485480
C        2.6845300710   -1.0823456645    0.4773430896
C        0.4232404998   -1.1540637315    2.0485582140
C        2.7479217386   -1.2234126134    1.8752227019
C        1.4345688903   -0.9654566919   -0.1504500218
C        1.2291305677   -0.8766067200   -1.6517648908
C        1.7361001859   -1.4146488906    4.0912747023
N        1.6330691446   -1.2598076348    2.6322424381
N        2.1941727446   -0.2254026256   -2.3577727673
O        0.2645579791   -1.3482171654   -2.2207199465
H       -0.6952105624   -0.9519594652    0.1984008156
H        3.5987912499   -1.0901945197   -0.1101895763
H       -0.4784421912   -1.1900107711    2.6546810992
H        3.7226023128   -1.3186199200    2.3470780623
H        1.7140321465   -2.4751514565    4.3640129992
H        2.6675012521   -0.9723763556    4.4588995229
H        0.9070616182   -0.9022050227    4.5897548707
H        2.0261349204   -0.1480585315   -3.3569924553
H        2.9236925491    0.3112650790   -1.9076375491
19   

C        0.2747098674   -1.0570422231    0.6535228051
C        2.6701095108   -0.9989563569    0.4840787043
C        0.4088109493   -1.2250894312    2.0410586909
C        2.7339784068   -1.1695013175    1.8788916489
C        1.4172333481   -0.9317593144   -0.1484124152
C        1.1919696050   -0.8068594927   -1.6473013411
C        1.7233038191   -1.4591629806    4.0851643962
N        1.6195449542   -1.2813428165    2.6287928158
N        2.2464915644   -0.3744029988   -2.3936322456
O        0.1441620440   -1.0977819911   -2.1907820465
H       -0.7137652433   -1.0316353166    0.1961870280
H        3.5900340317   -0.9423928069   -0.0902835205
H       -0.4925816068   -1.3193367035    2.6413451541
H        3.7099002873   -1.2228370377    2.3547196246
H        1.7223209534   -2.5243255054    4.3399060072
H        2.6451213208   -1.0049901656    4.4622770383
H        0.8835643906   -0.9712554929    4.5904060407
H        2.0655408710   -0.2901286808   -3.3900788653
H        3.0852649686    0.0111033724   -1.9826328707
19   

C        0.2849806638   -1.1327645467    0.6470202411
C        2.6716445301   -0.8950468745    0.4870145489
C        0.4307105621   -1.3422334497    2.0275102100
C        2.7458347592   -1.1116433558    1.8752124510
C        1.4177264141   -0.9065802578   -0.1474163771
C        1.1587426288   -0.6842814193   -1.6329146483
C        1.7549414645   -1.5414762866    4.0682000816
N        1.6419863547   -1.3336918476    2.6164372936
N        2.2353888489   -0.4622999018   -2.4305900043
O        0.0460491251   -0.6886307469   -2.1235527533
H       -0.7064388436   -1.1458106966    0.1954812667
H        3.5847708337   -0.7197230974   -0.0727255727
H       -0.4625910037   -1.5154578686    2.6222991774
H        3.7213108075   -1.0991921910    2.3547248407
H        1.8057945362   -2.6110520219    4.2977676601
H        2.6536335979   -1.0521708094    4.4570132798
H        0.8929192788   -1.1062077453    4.5840749440
H        2.0243045669   -0.3189810570   -3.4142540301
H        3.1881393628   -0.4659720474   -2.0964578269
