22   

C        1.8248828524   -0.2121664061    0.1148657935
C        0.5379470827   -0.4647972713    0.5829362008
C        2.9238848712   -0.4465868313    0.9438792194
C        0.3549000588   -0.9564639464    1.8761668606
C        2.7602446371   -0.9282505904    2.2537354472
C        1.4486030351   -1.1953776778    2.7263996314
C        3.9531985060   -1.1290921218    3.0993932345
C        5.2694877430   -0.8026800157    2.8750549637
C        1.1965873271   -1.7555928000    4.1062545829
C        6.3746217888   -1.6108833429    2.2243155503
H        1.9733982932    0.1683533682   -0.8891569304
H       -0.3191150844   -0.2827032374   -0.0554252801
H        3.9191017668   -0.2409381913    0.5679798741
H       -0.6528908489   -1.1552553582    2.2218560106
H        3.7263840724   -1.2972992491    4.1443396298
H        5.7071074710   -0.3760458946    3.7714239640
H        1.7808535382   -2.6690586505    4.2547552413
H        1.4749561428   -1.0210667334    4.8678664618
H        0.1401396123   -2.0062564363    4.2406425676
H        7.1789192691   -1.8079307599    2.9396542799
H        5.9808418929   -2.5673948402    1.8673887438
H        6.7859283769   -1.0617548492    1.3724203886
22   

C        1.9195372401   -0.2860677831    0.1157437237
C        0.6179738878   -0.5043750521    0.5594833395
C        2.9930244353   -0.4848916134    0.9864188947
C        0.3947322820   -0.9256818053    1.8709112523
C        2.7888643338   -0.8920198415    2.3165916628
C        1.4619654492   -1.1244651960    2.7639513429
C        3.9509288606   -1.0579426601    3.2115149556
C        5.2683485942   -0.7942056483    2.9670551580
C        1.1680474876   -1.6252961896    4.1582541574
C        6.2419611261   -1.5944965357    2.1295795955
H        2.0992194574    0.0408987890   -0.9019523622
H       -0.2191687434   -0.3514740321   -0.1121087959
H        3.9982511336   -0.3033085517    0.6259912545
H       -0.6236217878   -1.1034780174    2.1964838151
H        3.7000195873   -1.1350302365    4.2618594756
H        5.7846570765   -0.4505011676    3.8570425846
H        1.7621795551   -2.5198068975    4.3702819175
H        1.4043478180   -0.8518764318    4.8949386373
H        0.1123089858   -1.8922651727    4.2639736020
H        7.0958048640   -1.9114281483    2.7360247008
H        5.7496895912   -2.4842242571    1.7249175465
H        6.6064391447   -0.9858358408    1.2969833097
22   

C        1.9927581113   -0.3619956398    0.1189148509
C        0.6818459880   -0.5518843766    0.5465563952
C        3.0474268187   -0.5123109664    1.0216407095
C        0.4303493455   -0.8946648570    1.8752171056
C        2.8154364435   -0.8377613234    2.3709119676
C        1.4779258316   -1.0394562485    2.8012759753
C        3.9496860461   -0.9540397934    3.3096488035
C        5.2718480682   -0.8033437466    3.0405424708
C        1.1545090493   -1.4750180203    4.2108558468
C        6.1010109956   -1.6096942927    2.0681300118
H        2.1944482996   -0.0929140506   -0.9115198321
H       -0.1403982818   -0.4385388331   -0.1507936548
H        4.0566533073   -0.3452792099    0.6677460268
H       -0.5946655079   -1.0564507129    2.1879226688
H        3.6901004722   -0.9442102074    4.3609109024
H        5.8580978077   -0.5220577014    3.9087354954
H        1.7631351384   -2.3423925159    4.4858570710
H        1.3495370858   -0.6595765816    4.9132036083
H        0.1034567292   -1.7660244520    4.2986752232
H        6.9727834957   -2.0336936842    2.5754750153
H        5.5075463995   -2.4288533825    1.6500871239
H        6.4464583128   -0.9707037183    1.2502315054
22   

C        2.0315764254   -0.4120939358    0.1272130841
C        0.7161733219   -0.5864570677    0.5452133619
C        3.0750980136   -0.5219795768    1.0483295452
C        0.4489115158   -0.8701618683    1.8840637530
C        2.8291929341   -0.7905430184    2.4091641409
C        1.4847418428   -0.9707724654    2.8290885184
C        3.9408906428   -0.8659347598    3.3788418925
C        5.2662531168   -0.8478981216    3.1106868506
C        1.1427139732   -1.3566779778    4.2488154726
C        5.9805488523   -1.6240643588    2.0322286914
H        2.2457115530   -0.1835973579   -0.9104886966
H       -0.0970789761   -0.5059571985   -0.1670876325
H        4.0826762776   -0.3536983307    0.6938645918
H       -0.5795585958   -1.0227452785    2.1898827678
H        3.6779576994   -0.7956281523    4.4271095849
H        5.8950184693   -0.6396202967    3.9695872020
H        1.7610703975   -2.2015980114    4.5686985960
H        1.3092508195   -0.5112850232    4.9222523887
H        0.0960948261   -1.6656661936    4.3281049212
H        6.8488613561   -2.1387271451    2.4544540517
H        5.3151937841   -2.3739321732    1.5928313350
H        6.3262361869   -0.9467490176    1.2458323366
22   

C        2.0514308561   -0.4427994509    0.1339117323
C        0.7360732442   -0.6096510966    0.5525224009
C        3.0926150634   -0.5192092157    1.0608075841
C        0.4664251860   -0.8487118010    1.8989487405
C        2.8468140678   -0.7478440385    2.4304152912
C        1.4996286204   -0.9132149437    2.8501341904
C        3.9458931223   -0.7887228665    3.4177773021
C        5.2640742623   -0.9128678013    3.1642209043
C        1.1524222765   -1.2620505327    4.2783252701
C        5.8994606687   -1.6321136966    2.0022226780
H        2.2676370707   -0.2429576738   -0.9092705814
H       -0.0750641969   -0.5562962472   -0.1647242912
H        4.0944193670   -0.3417774699    0.6978160340
H       -0.5622999916   -0.9966207071    2.2060995639
H        3.6851884376   -0.6743498031    4.4628071652
H        5.9149906082   -0.7797569449    4.0215140923
H        1.7807312211   -2.0877528201    4.6278414759
H        1.2999157114   -0.3948141725    4.9278042071
H        0.1105469828   -1.5865786306    4.3583517125
H        6.7629880205   -2.2065771183    2.3506488310
H        5.1927876532   -2.3294686354    1.5416133213
H        6.2455589407   -0.9134034542    1.2536421696
22   

C        2.0589565248   -0.4695173836    0.1371595936
C        0.7442383545   -0.6217951267    0.5611661580
C        3.1013168477   -0.5247787140    1.0640620873
C        0.4763809785   -0.8223165994    1.9137024234
C        2.8595696995   -0.7188581567    2.4407434345
C        1.5106911845   -0.8638903919    2.8651073648
C        3.9528406501   -0.7386497734    3.4356488000
C        5.2544893322   -0.9988925713    3.2117394484
C        1.1619805993   -1.1791044325    4.3009084708
C        5.8636128270   -1.6272916029    1.9867068803
H        2.2740575727   -0.2952433427   -0.9108337094
H       -0.0676210013   -0.5858074952   -0.1563455108
H        4.0981880723   -0.3479872488    0.6897966813
H       -0.5523096646   -0.9596215507    2.2257651092
H        3.6935172095   -0.5970877780    4.4776946557
H        5.9035376178   -0.9427696404    4.0788854909
H        1.7912269722   -1.9950782828    4.6711181469
H        1.3058431987   -0.2963728144    4.9298640646
H        0.1210658452   -1.5052757568    4.3867298072
H        6.7333884535   -2.2248236210    2.2757067893
H        5.1512965756   -2.2945921172    1.4919198311
H        6.2003993668   -0.8553047301    1.2886233398
22   

C        2.0532990153   -0.4959712844    0.1369286235
C        0.7393739848   -0.6229818615    0.5700872251
C        3.0995632932   -0.5402244253    1.0599456718
C        0.4762451335   -0.7858014210    1.9281954956
C        2.8641086041   -0.6975869135    2.4429809536
C        1.5145000871   -0.8147246935    2.8758497146
C        3.9580651193   -0.7077045078    3.4381311429
C        5.2327158947   -1.0947516037    3.2469790540
C        1.1671105260   -1.0964049469    4.3190884152
C        5.8574555298   -1.6106930191    1.9790487789
H        2.2651111565   -0.3489538388   -0.9159026013
H       -0.0753797491   -0.5964789849   -0.1445504789
H        4.0930326671   -0.3780625462    0.6721612546
H       -0.5523323476   -0.9050835984    2.2478715588
H        3.6995710267   -0.5504365930    4.4780611560
H        5.8641614571   -1.1146818206    4.1286066221
H        1.7896993593   -1.9104988402    4.7045213278
H        1.3203288314   -0.2021987599    4.9292260994
H        0.1238437306   -1.4122670073    4.4144210011
H        6.7474864696   -2.1980027794    2.2239322800
H        5.1674948077   -2.2669890124    1.4401127186
H        6.1692289705   -0.7794760856    1.3398305966
22   

C        2.0640205989   -0.4110133949    0.1476718389
C        0.7498632594   -0.4545123353    0.5977294916
C        3.0964899775   -0.8750916370    0.9645896677
C        0.4724303504   -0.9691003565    1.8624594114
C        2.8446591691   -1.4084809087    2.2465575105
C        1.4961266109   -1.4572460173    2.6933967307
C        3.9260596001   -1.9396228117    3.1032682177
C        5.2378426250   -1.6446831955    3.0370857067
C        1.1405625207   -1.9136114309    4.0890282404
C        5.8809450618   -0.4963587654    2.3060412440
H        2.2859341650   -0.0287544217   -0.8420565966
H       -0.0541199692   -0.0892783737   -0.0311176573
H        4.0916100626   -0.8675573761    0.5465433720
H       -0.5550067560   -0.9774412004    2.2070507964
H        3.6500214251   -2.5881475571    3.9256845156
H        5.8745128188   -2.1602706974    3.7478429511
H        1.2486577855   -2.9983501150    4.1736048720
H        1.7910819813   -1.4257110589    4.8222389028
H        0.1096452277   -1.6432988136    4.3368124985
H        6.2014048826   -0.8101159089    1.3082581538
H        5.1959678828    0.3535948970    2.2293330860
H        6.7656918972   -0.1617541819    2.8558940298
22   

C        2.0566629552   -0.4295248984    0.1344551450
C        0.7415560197   -0.4568930571    0.5849947658
C        3.0866630829   -0.8776292984    0.9635152420
C        0.4608274705   -0.9365719144    1.8632066560
C        2.8291081864   -1.3790193285    2.2561006250
C        1.4821338421   -1.4070934457    2.7069894842
C        3.9150337739   -1.8907034038    3.1183492119
C        5.2400121978   -1.6998802725    2.9590494615
C        1.1262315088   -1.8322836610    4.1121632259
C        5.9150569331   -0.5078940355    2.3307756808
H        2.2809870933   -0.0706321450   -0.8634356269
H       -0.0607413670   -0.1050264289   -0.0535525417
H        4.0872956418   -0.8771088455    0.5565903345
H       -0.5668652072   -0.9326450979    2.2071931890
H        3.6361152775   -2.5178481332    3.9562197100
H        5.8739867110   -2.2782150323    3.6223505497
H        1.2370184819   -2.9146605290    4.2210865369
H        1.7754867611   -1.3269003424    4.8345009174
H        0.0941624438   -1.5597627686    4.3525648472
H        6.2481225209   -0.7501383303    1.3173222201
H        5.2381333127    0.3515163970    2.2985190118
H        6.7918229172   -0.2258312683    2.9213786646
22   

C        2.0352318516   -0.4546906890    0.1101619805
C        0.7212578890   -0.4759648578    0.5666962675
C        3.0708569335   -0.8685376429    0.9502106581
C        0.4475106778   -0.9115669144    1.8627448936
C        2.8177360668   -1.3290617652    2.2572417952
C        1.4748749485   -1.3453399384    2.7186115807
C        3.9198344465   -1.7996901563    3.1208236859
C        5.2469771090   -1.7224261708    2.8729396210
C        1.1286463597   -1.7325877751    4.1369538097
C        5.9987333743   -0.5274471151    2.3412925180
H        2.2541157379   -0.1246793034   -0.8988341105
H       -0.0857439232   -0.1519178563   -0.0805862737
H        4.0766137266   -0.8643916141    0.5532183194
H       -0.5790901403   -0.9035494340    2.2099993040
H        3.6424200602   -2.3893325387    3.9858672909
H        5.8584524816   -2.3632207090    3.4989715497
H        1.2605976840   -2.8088280140    4.2792269302
H        1.7695490116   -1.1929970943    4.8416956652
H        0.0914193851   -1.4739009440    4.3702206678
H        6.3314421410   -0.7162834533    1.3164406167
H        5.3633149713    0.3637093221    2.3536735047
H        6.8782993087   -0.3323236081    2.9621062712
22   

C        1.9952049277   -0.4814850636    0.0805886110
C        0.6846638025   -0.4949758941    0.5493592827
C        3.0403533056   -0.8578094542    0.9266931296
C        0.4241183962   -0.8818813770    1.8640880708
C        2.7983672414   -1.2711830044    2.2498843775
C        1.4616329853   -1.2749767090    2.7272108749
C        3.9214517437   -1.6985684586    3.1090830210
C        5.2419759419   -1.7308743493    2.7963906330
C        1.1311876314   -1.6211788855    4.1597442182
C        6.1077973731   -0.5631689280    2.3833631955
H        2.2037882943   -0.1844776252   -0.9407615651
H       -0.1301207065   -0.2015502722   -0.1027566388
H        4.0490067432   -0.8525703969    0.5339027064
H       -0.5998086725   -0.8695541887    2.2191038806
H        3.6461376000   -2.2442421624    4.0030056725
H        5.8073874658   -2.4416619209    3.3893960905
H        1.2881713871   -2.6889607206    4.3370839279
H        1.7639879909   -1.0445060597    4.8419597707
H        0.0891906832   -1.3795774183    4.3899204960
H        6.4485051625   -0.6952887019    1.3523221601
H        5.5434011327    0.3721046992    2.4518665874
H        6.9827130335   -0.4915591642    3.0364617467
22   

C        1.9200661699   -0.5440151613    0.0378623125
C        0.6193377924   -0.5406294499    0.5345737947
C        2.9856714286   -0.8611143591    0.8827952055
C        0.3892255041   -0.8493886021    1.8758030336
C        2.7739010709   -1.1922928157    2.2327078900
C        1.4482355593   -1.1778064675    2.7398996386
C        3.9266234170   -1.5531267161    3.0810851179
C        5.2385905003   -1.6996196582    2.7315325726
C        1.1486710155   -1.4590202690    4.1933395749
C        6.2506737079   -0.6176219663    2.4240520013
H        2.1050770232   -0.3046469715   -1.0029896740
H       -0.2117091478   -0.2953493821   -0.1169019864
H        3.9901218409   -0.8656749893    0.4773079211
H       -0.6279283043   -0.8296647968    2.2495185256
H        3.6619218532   -2.0203425017    4.0211702170
H        5.7294443145   -2.4713511793    3.3148674608
H        1.3489484283   -2.5095041250    4.4237700616
H        1.7673948904   -0.8240061071    4.8352364336
H        0.1003738464   -1.2481892907    4.4249768590
H        6.6080701212   -0.7220252637    1.3955097696
H        5.7940172315    0.3703403693    2.5384819099
H        7.1048285952   -0.6900044426    3.1040917540
22   

C        1.8227541004   -0.6027078987   -0.0001904070
C        0.5374362473   -0.5835100638    0.5352589118
C        2.9157765898   -0.8693496348    0.8269891531
C        0.3502300272   -0.8251859672    1.8969618465
C        2.7473863716   -1.1288996072    2.1976765631
C        1.4377707567   -1.0987987365    2.7446361946
C        3.9329503842   -1.4362005917    3.0214303385
C        5.2415866369   -1.6451174488    2.6562640925
C        1.1825043476   -1.3240868230    4.2161782205
C        6.3814341860   -0.6558966561    2.5141390567
H        1.9745325136   -0.4142849965   -1.0567763503
H       -0.3150632953   -0.3791525687   -0.1024727761
H        3.9096269306   -0.8857960854    0.3956667129
H       -0.6559381936   -0.7985111933    2.2989262136
H        3.6956182966   -1.8247949691    4.0034293937
H        5.6518326849   -2.4888309429    3.2011037528
H        1.4254760822   -2.3558664552    4.4872195653
H        1.7932884543   -0.6402228205    4.8137685680
H        0.1326579055   -1.1418312631    4.4643310819
H        6.7883479410   -0.6992454590    1.4997518559
H        6.0234136196    0.3603910758    2.7048036706
H        7.1804265949   -0.8853437410    3.2257538167
