14   

C       -0.3065413589    0.8554449167   -2.0520910800
C       -0.4546071975   -0.1050800792   -0.9694483587
C       -1.0805959231    0.5379213400   -3.1382625618
C       -1.3506898695   -1.1149877132   -1.2687436784
C       -1.7304182729   -2.2922533309   -0.4666153984
C       -1.3075236129   -2.3876748881    0.9916118015
O       -2.3294401386   -3.2374974564   -0.9720184232
S       -2.0200028132   -0.9296857171   -2.8906925880
H        0.3465372879    1.7205700019   -2.0057614146
H        0.0920377598   -0.0322573295   -0.0351018671
H       -1.1170680596    1.1170159578   -4.0534654904
H       -1.7454315051   -1.5604210088    1.5561705163
H       -0.2181792410   -2.3424588770    1.0665287235
H       -1.6537834055   -3.3325651551    1.4199488353
14   

C       -0.2946138653    0.8543347839   -2.0632371948
C       -0.3905704092   -0.1379795954   -1.0036018180
C       -1.1700080836    0.6058739337   -3.0889439611
C       -1.3587959404   -1.0927946966   -1.2525436759
C       -1.6833273090   -2.3078098064   -0.4759223624
C       -1.3076705004   -2.3896251974    0.9961742469
O       -2.1351530253   -3.3085596990   -1.0232198911
S       -2.1483088481   -0.8300445312   -2.8075586288
H        0.3984986400    1.6888562564   -2.0469814748
H        0.2474995858   -0.1298682230   -0.1262530173
H       -1.2565879296    1.2162446025   -3.9801361216
H       -1.8727246923   -1.6426034329    1.5597367565
H       -0.2379092283   -2.2061633166    1.1215322302
H       -1.5443442730   -3.3831328303    1.3874670600
14   

C       -0.2472490100    0.8028534915   -2.0890833769
C       -0.3015569375   -0.2145016959   -1.0503401806
C       -1.2328551326    0.6398516040   -3.0285829926
C       -1.3545341552   -1.0924862340   -1.2209316686
C       -1.6491226625   -2.3311886240   -0.4580830067
C       -1.3278664283   -2.4003538097    1.0281795166
O       -1.9728501424   -3.3657276587   -1.0291846102
S       -2.2696648320   -0.7407660614   -2.6857342787
H        0.4977557184    1.5908380643   -2.1228172009
H        0.4284733286   -0.2814411172   -0.2508315203
H       -1.3654294471    1.2803236888   -3.8925779974
H       -2.0969395423   -1.8640236801    1.5901494594
H       -0.3540877004   -1.9502029258    1.2323097349
H       -1.3089698679   -3.4428403688    1.3582037493
14   

C       -0.2100569215    0.7893791280   -2.1150007337
C       -0.2200324475   -0.2596222585   -1.1067707268
C       -1.2786458154    0.6981909563   -2.9701762053
C       -1.3235462433   -1.0812301735   -1.2088630145
C       -1.5776250923   -2.3475233285   -0.4612913751
C       -1.3629677749   -2.3849667513    1.0448139097
O       -1.7322831720   -3.4089119416   -1.0488497906
S       -2.3422020592   -0.6494034943   -2.5794876286
H        0.5642102842    1.5456128945   -2.1904725099
H        0.5749153349   -0.3935483350   -0.3806572480
H       -1.4554089752    1.3714399390   -3.8006927832
H       -2.2712174911   -2.0418216763    1.5470187099
H       -0.5321583996   -1.7361104473    1.3307261825
H       -1.1418414189   -3.4064218154    1.3665758722
14   

C       -0.6219377277    0.8800539870   -2.0639336103
C       -1.1450669118   -0.0649323251   -1.0889284289
C       -0.4755801361    0.3165179170   -3.3061665038
C       -1.4151212492   -1.2964541590   -1.6403818861
C       -1.8168223781   -2.5434715178   -0.9060892980
C       -3.1130357334   -2.5508018748   -0.1111129100
O       -1.0245455112   -3.4563687255   -0.7369375789
S       -0.9754432517   -1.3714168182   -3.3435773695
H       -0.3631495293    1.9071568294   -1.8291023594
H       -1.2771971303    0.1702093251   -0.0378258354
H       -0.0907703190    0.8407851869   -4.1729701207
H       -3.9398213987   -2.8261295415   -0.7709948357
H       -3.3060711762   -1.5595464300    0.3062235095
H       -3.0494837588   -3.2758742076    0.7049100932
14   

C       -0.4983579455    0.8467282230   -2.0643722011
C       -0.9173150948   -0.0855629361   -1.0284651517
C       -0.5621031878    0.2927319853   -3.3180269138
C       -1.2879360180   -1.3051362919   -1.5376537288
C       -1.7648391147   -2.5112642233   -0.7692471844
C       -3.2429097823   -2.6513939807   -0.4462108283
O       -0.9797236160   -3.3504274001   -0.3625347335
S       -1.1304479649   -1.3735898873   -3.2894568845
H       -0.1687168967    1.8608433446   -1.8643968573
H       -0.9267177620    0.1539081295    0.0300369163
H       -0.2907148008    0.8124322627   -4.2294037957
H       -3.8078231581   -2.7936962281   -1.3709947898
H       -3.5978299683   -1.7472717618    0.0549504506
H       -3.4046876875   -3.5117138881    0.2092685814
14   

C       -0.4076506167    0.8153511025   -2.0198479571
C       -0.7440421611   -0.0978614223   -0.9381253719
C       -0.6851249015    0.2832472022   -3.2532389735
C       -1.2369854488   -1.2979385216   -1.3913625990
C       -1.7865034570   -2.4130662445   -0.5485148739
C       -3.2534164337   -2.7944113894   -0.6762938597
O       -1.0475526772   -3.1403789562    0.0954182174
S       -1.3539708834   -1.3418492773   -3.1490882873
H        0.0114371781    1.8039477542   -1.8644077866
H       -0.6261337783    0.1430801885    0.1137090791
H       -0.5117839282    0.7962079825   -4.1919716453
H       -3.5480428702   -2.8230506510   -1.7279312177
H       -3.8664046937   -2.0557247677   -0.1534206152
H       -3.4253052224   -3.7787369716   -0.2319468599
14   

C       -0.3297936964    0.7853795803   -2.0242354056
C       -0.6382617849   -0.1261216702   -0.9330614708
C       -0.7584414977    0.3075184536   -3.2360610740
C       -1.2578311543   -1.2794122889   -1.3598061234
C       -1.8276026026   -2.3393563969   -0.4745410517
C       -3.2384250861   -2.8552874628   -0.7184058970
O       -1.1176405569   -2.9397640343    0.3196301895
S       -1.5395967010   -1.2641373240   -3.1005003564
H        0.1764259822    1.7354651658   -1.8893305498
H       -0.4155791283    0.0813275951    0.1091216397
H       -0.6319468544    0.8301583316   -4.1769358914
H       -3.3779040970   -3.1048195095   -1.7726729732
H       -3.9603622414   -2.0861569869   -0.4316969051
H       -3.4179346823   -3.7511330542   -0.1173184330
14   

C       -0.2647024411    0.7737398974   -2.0497154032
C       -0.5570472603   -0.1356684096   -0.9524829017
C       -0.8238331448    0.3581763722   -3.2309966977
C       -1.3000820959   -1.2283284570   -1.3470606837
C       -1.8651163358   -2.2571847922   -0.4338124941
C       -3.2149353904   -2.8929998700   -0.7337087930
O       -1.1824790589   -2.7286443510    0.4671185346
S       -1.7145066427   -1.1506381570   -3.0597682323
H        0.3240014736    1.6784266429   -1.9398266382
H       -0.2362338171    0.0278422539    0.0719938159
H       -0.7307572050    0.8911841754   -4.1699488974
H       -3.2312940242   -3.2895782921   -1.7515583752
H       -4.0030429048   -2.1434601032   -0.6237667720
H       -3.4052983913   -3.7116450945   -0.0339096262
14   

C       -0.2137583364    0.7509431730   -2.0810930063
C       -0.5107853899   -0.1501515131   -0.9782809578
C       -0.8788752832    0.4034086081   -3.2290942818
C       -1.3729220135   -1.1669913658   -1.3360935539
C       -1.9360842633   -2.1781790101   -0.4091852739
C       -3.2262271566   -2.9092184626   -0.7516581414
O       -1.3019172712   -2.5312447509    0.5789154469
S       -1.8816489112   -1.0284029494   -3.0194643017
H        0.4548289651    1.6013755351   -1.9983678708
H       -0.1073195736   -0.0367784645    0.0236812432
H       -0.8003330297    0.9431429282   -4.1655224309
H       -3.1513054963   -3.3661769748   -1.7413519648
H       -4.0607703967   -2.2032703079   -0.7391287514
H       -3.4160525292   -3.6950038193   -0.0150083438
14   

C       -0.1762596929    0.7332297671   -2.1015451537
C       -0.4698753351   -0.1626618289   -0.9935717124
C       -0.9431266693    0.4622525555   -3.2060013091
C       -1.4424016995   -1.0931795458   -1.3023089839
C       -1.9927736353   -2.1044403436   -0.3714735702
C       -3.2306178777   -2.9085843919   -0.7412629838
O       -1.4132207524   -2.3549658378    0.6803912698
S       -2.0445319530   -0.8868217775   -2.9474874157
H        0.5642076539    1.5247331623   -2.0534981736
H        0.0166162987   -0.1090450283   -0.0239216061
H       -0.8834519136    1.0116459514   -4.1381932600
H       -3.0722450374   -3.4250568496   -1.6912832764
H       -4.0907966312   -2.2398123147   -0.8292162021
H       -3.4373991397   -3.6518396817    0.0339534071
14   

C       -0.1398066174    0.6900776408   -2.1089646673
C       -0.4399870213   -0.2006549647   -0.9985703237
C       -0.9905634420    0.5043687721   -3.1687924891
C       -1.5113528857   -1.0332458531   -1.2567245076
C       -2.0595452104   -2.0468075813   -0.3281696986
C       -3.2471366290   -2.9084360076   -0.7313763387
O       -1.5579644205   -2.2042578899    0.7805844471
S       -2.1843065367   -0.7532483232   -2.8630562807
H        0.6659967522    1.4164067644   -2.0948131036
H        0.1140036017   -0.2147923992   -0.0643690122
H       -0.9405862825    1.0649885189   -4.0948497577
H       -3.0058454602   -3.4743284960   -1.6348291942
H       -4.1173844569   -2.2745641233   -0.9200967982
H       -3.4878392987   -3.6106361115    0.0718238695
14   

C       -0.1157396147    0.6562631049   -2.1057693316
C       -0.4080271488   -0.2373615760   -0.9956183574
C       -1.0562109213    0.5735413964   -3.1007485240
C       -1.5708550505   -0.9584949081   -1.1821617379
C       -2.1055814874   -1.9836147615   -0.2573902270
C       -3.2543457813   -2.8878331832   -0.6798482652
O       -1.6743232407   -2.0663163370    0.8881755346
S       -2.3297508202   -0.5842802070   -2.7300229649
H        0.7497212568    1.3097010061   -2.1385485389
H        0.2182719732   -0.3350499127   -0.1135875168
H       -1.0268581115    1.1532979745   -4.0158420526
H       -2.9306789316   -3.5344022174   -1.4996595515
H       -4.1060050702   -2.2854342846   -1.0056137510
H       -3.5660457898   -3.5122457008    0.1622308142
14   

C       -0.0996291843    0.6145456895   -2.1190387115
C       -0.3999016519   -0.2788660712   -1.0108762343
C       -1.1011099757    0.6345077420   -3.0558687435
C       -1.6328272759   -0.8873203105   -1.1334554190
C       -2.1730206403   -1.9205873837   -0.2173056566
C       -3.2577921603   -2.8800489049   -0.6852772318
O       -1.8476585908   -1.9289745745    0.9647551831
S       -2.4445326693   -0.4199830116   -2.6283224076
H        0.8150990479    1.1932377940   -2.1930373343
H        0.2723403471   -0.4587686659   -0.1770351018
H       -1.0772176493    1.2311253526   -3.9602230516
H       -2.8484657261   -3.5525446385   -1.4436860885
H       -4.0987191150   -2.3246554880   -1.1074906984
H       -3.6180395996   -3.4753072616    0.1585428560
14   

C       -0.0774856026    0.5527841973   -2.1178018915
C       -0.3906852830   -0.3332301495   -1.0072601032
C       -1.1242364051    0.6746509328   -2.9954114496
C       -1.6771755629   -0.8264753962   -1.0631013315
C       -2.2433077816   -1.8538892055   -0.1488016513
C       -3.2382260666   -2.8812349734   -0.6692739110
O       -2.0537401969   -1.7811944517    1.0589874196
S       -2.5268011990   -0.2694982227   -2.5049977659
H        0.8778616640    1.0531283604   -2.2364320974
H        0.3122384349   -0.5907473835   -0.2206272925
H       -1.1004089716    1.2837182866   -3.8914363095
H       -2.7336962233   -3.5569567589   -1.3648755023
H       -4.0652660043   -2.3845367231   -1.1819730110
H       -3.6403111996   -3.4659530417    0.1629326299
14   

C       -0.0683461803    0.4832938867   -2.1269859664
C       -0.3906636079   -0.4092954432   -1.0242410757
C       -1.1523757384    0.7269961479   -2.9307964509
C       -1.7159660733   -0.7826698754   -1.0095420520
C       -2.3234443515   -1.7980050239   -0.0974803990
C       -3.2064716756   -2.8988688988   -0.6670422552
O       -2.2862138867   -1.6511708156    1.1159005964
S       -2.6009084892   -0.1053992014   -2.3762124733
H        0.9189039607    0.9012949456   -2.2935167940
H        0.3351748456   -0.7554820802   -0.2948015241
H       -1.1300008033    1.3618190620   -3.8088043980
H       -2.5872779910   -3.6120823472   -1.2173902278
H       -3.9561547984   -2.4779921900   -1.3408734398
H       -3.7173103393   -3.4254779206    0.1440049105
14   

C       -0.0589783537    0.4168962807   -2.1765507422
C       -0.3938758657   -0.4943642497   -1.0927200614
C       -1.1638034216    0.7964126405   -2.8953782789
C       -1.7418161475   -0.7495755374   -1.0120213468
C       -2.4115914334   -1.7288531260   -0.0910236035
C       -3.1377424928   -2.9302478387   -0.6766128456
O       -2.5471705920   -1.4862142054    1.0974299167
S       -2.6463455488    0.0722875521   -2.2814916706
H        0.9503130186    0.7527527777   -2.3902115783
H        0.3403663020   -0.9321324317   -0.4237217147
H       -1.1375771760    1.4690709506   -3.7446355016
H       -2.4050942692   -3.6764262350   -0.9948137205
H       -3.7374467903   -2.6282458126   -1.5384251898
H       -3.7951102009   -3.3747469585    0.0758364619
14   

C       -0.6052824334    1.0091777065   -2.0888252426
C       -1.1464987589    0.3438660674   -0.9131341308
C       -0.5010013033    0.1617976772   -3.1629394196
C       -1.4240385114   -0.9810423145   -1.1402192483
C       -2.0007126556   -1.9753138371   -0.1647514271
C       -1.0666039327   -2.7431363053    0.7553431396
O       -3.2050976050   -2.1360297022   -0.0667222928
S       -1.0528737858   -1.4682725244   -2.7903984012
H       -0.3229349117    2.0564799841   -2.1116277419
H       -1.3201667019    0.8423493479    0.0351359466
H       -0.1268025059    0.4543468821   -4.1369708670
H       -0.4168926225   -2.0439613336    1.2878814337
H       -0.4505000401   -3.4257220810    0.1644992156
H       -1.6451411541   -3.3198174534    1.4824615742
14   

C       -0.4871566835    0.9742220017   -2.0568037170
C       -0.9474172067    0.2149028808   -0.9040266189
C       -0.5328250047    0.2392109286   -3.2143039566
C       -1.2838391138   -1.0800864315   -1.2256654796
C       -1.9347339465   -2.0913443136   -0.3261043314
C       -1.2142339575   -2.5312410541    0.9386432140
O       -3.1124617685   -2.3836764894   -0.4572348947
S       -1.1222771674   -1.3987428271   -2.9496642264
H       -0.1610401164    2.0077527218   -2.0066107454
H       -1.0425154846    0.6359846569    0.0915700615
H       -0.2461657748    0.6164968195   -4.1888629591
H       -0.6272908691   -1.7045597624    1.3462132082
H       -0.5433374959   -3.3611306497    0.7019936469
H       -1.9386108798   -2.8592652465    1.6892048553
14   

C       -0.4235011648    0.9296287210   -2.0361254783
C       -0.8243100039    0.1375057862   -0.8833355230
C       -0.6092371246    0.2582310616   -3.2177556881
C       -1.2573627321   -1.1247078004   -1.2333179558
C       -1.8960043232   -2.1382527483   -0.3434972628
C       -1.2762787375   -2.4418363749    1.0128250328
O       -3.0198234132   -2.5627668352   -0.5726440856
S       -1.2616442320   -1.3595405387   -2.9790501849
H       -0.0383956715    1.9416020504   -1.9677226597
H       -0.8127885874    0.5184449118    0.1324752870
H       -0.3881135326    0.6699729579   -4.1954264707
H       -0.8262749599   -1.5427090788    1.4395231170
H       -0.5021993977   -3.2042680598    0.8929297931
H       -2.0412452538   -2.8152344045    1.6992638046
14   

C       -0.3897677660    0.8964944705   -2.0364351091
C       -0.7374800805    0.0719919908   -0.8891600050
C       -0.6982580173    0.2884829501   -3.2263108934
C       -1.2639674749   -1.1519888433   -1.2544037807
C       -1.8611434866   -2.1918134354   -0.3796199062
C       -1.3066674389   -2.4141883830    1.0204057885
O       -2.9082092892   -2.7510237967   -0.6832084283
S       -1.4082481238   -1.3068957699   -3.0042622851
H        0.0496691688    1.8852854601   -1.9572059119
H       -0.6173697725    0.4058991478    0.1358856732
H       -0.5325363553    0.7328944701   -4.2006324741
H       -1.1010121162   -1.4592194255    1.5085552996
H       -0.3808272977   -2.9917306089    0.9556085045
H       -2.0297559494   -2.9690293284    1.6248442014
14   

C       -0.3436599203    0.8790901509   -2.0286628789
C       -0.6420081041    0.0209014014   -0.8923394750
C       -0.8080629731    0.3586926002   -3.2092302992
C       -1.3014107853   -1.1379791521   -1.2575414775
C       -1.8598170092   -2.1968289221   -0.3906537969
C       -1.3224516268   -2.3826845514    1.0205383796
O       -2.8383137072   -2.8506162734   -0.7374369261
S       -1.6140594282   -1.1910141320   -2.9923716190
H        0.1774023981    1.8272799573   -1.9478776574
H       -0.3864545508    0.2817778151    0.1292305278
H       -0.7000425475    0.8402057254   -4.1739838135
H       -1.4110837451   -1.4492745481    1.5815302045
H       -0.2717815440   -2.6810182509    0.9755746121
H       -1.8905990058   -3.1615004049    1.5371031941
14   

C       -0.3115288260    0.8590299125   -2.0500533062
C       -0.5657069667   -0.0318939899   -0.9283241354
C       -0.8765383058    0.4042417981   -3.2135055157
C       -1.3066916913   -1.1437342377   -1.2849035480
C       -1.8115499548   -2.2397516592   -0.4379145525
C       -1.3208445131   -2.3805453201    0.9951797562
O       -2.6770608332   -3.0098379120   -0.8449375615
S       -1.7314771732   -1.1188769268   -2.9972356345
H        0.2557325478    1.7805536211   -1.9718956108
H       -0.2147694369    0.1694636996    0.0783659889
H       -0.8124300254    0.9173063393   -4.1658359229
H       -1.5464758737   -1.4704354589    1.5565348696
H       -0.2412380970   -2.5516615450    0.9988110582
H       -1.8163066517   -3.2274947105    1.4782697052
14   

C       -0.3066924569    0.8648430805   -2.0602560949
C       -0.5085707788   -0.0624512893   -0.9575424371
C       -0.9773836804    0.4801447628   -3.1923659346
C       -1.3294720944   -1.1237153871   -1.2930204723
C       -1.7724029326   -2.2610624425   -0.4683687259
C       -1.3152675225   -2.3771666979    0.9779159500
O       -2.5113566758   -3.1274156332   -0.9287933249
S       -1.8767144655   -1.0158055028   -2.9672974496
H        0.3050277606    1.7583413132   -1.9927381144
H       -0.0581449394    0.0739021422    0.0200627877
H       -0.9631961649    1.0275635170   -4.1274654196
H       -1.6493067794   -1.5027443666    1.5422325401
H       -0.2247665550   -2.4400412756    1.0167036255
H       -1.7394380096   -3.2768276500    1.4327451834
