9    
Generated by ForceBalance from scan.xyz: Frame 1 of 24
C       -0.4905049671   -0.3936356458   -1.2409740252
C       -0.4110400975    0.3728479275   -0.1434780937
C        0.5415264460   -0.0098328760    0.9924228851
Cl      -1.3765512258    0.0051888662   -2.6630694780
Cl      -1.1524030354    1.9376363924   -0.0800126578
Cl       2.2389168772    0.4121299587    0.4829689892
Cl       0.2015450669    0.8687601681    2.5160815597
Cl       0.4673812234   -1.7836920984    1.3221479090
H        0.0104812818   -1.3524058424   -1.2884273323
9    
Generated by ForceBalance from scan.xyz: Frame 2 of 24
C       -0.5693839637   -0.4317141327   -1.2110692698
C       -0.3654492234    0.3848203667   -0.1669419394
C        0.5619700511    0.0036380125    0.9801143815
Cl      -1.4508689230   -0.0097064132   -2.6303946663
Cl      -0.9163914163    2.0297854918   -0.1850940335
Cl       2.2268850115    0.6250261103    0.5923677613
Cl       0.0443210715    0.7410232222    2.5361450728
Cl       0.6545356975   -1.7820506495    1.2011905512
H       -0.1898065028   -1.4446128073   -1.2148409207
9    
Generated by ForceBalance from scan.xyz: Frame 3 of 24
C       -0.6233773483   -0.4541477661   -1.1879052346
C       -0.2921642363    0.3997747182   -0.2090903742
C        0.5899217676    0.0107775839    0.9654886965
Cl      -1.5306364184   -0.0297830658   -2.5913193105
Cl      -0.7157892688    2.0812456161   -0.2875673233
Cl       2.2276576205    0.7535719721    0.7341735763
Cl      -0.1017546886    0.6192084654    2.5151991623
Cl       0.7932304756   -1.7743904315    1.1058518639
H       -0.3389125156   -1.4963203166   -1.1487226623
9    
Generated by ForceBalance from scan.xyz: Frame 4 of 24
C       -0.6699170260   -0.4652459201   -1.1585952847
C       -0.2135768426    0.4159034034   -0.2577970847
C        0.6195464349    0.0243573347    0.9495788471
Cl      -1.6180983485   -0.0497644401   -2.5378409157
Cl      -0.5428817318    2.1149653672   -0.3953526717
Cl       2.2201034336    0.8607292827    0.8839576606
Cl      -0.2374357561    0.5097237867    2.4651042829
Cl       0.9226709481   -1.7516609299    1.0264660797
H       -0.4639318625   -1.5225938329   -1.0710870305
9    
Generated by ForceBalance from scan.xyz: Frame 5 of 24
C       -0.7138697956   -0.4655357609   -1.1263539801
C       -0.1361779594    0.4268140595   -0.3098275983
C        0.6456563244    0.0326068654    0.9319542420
Cl      -1.6979384734   -0.0567550799   -2.4818615511
Cl      -0.3735611258    2.1345450697   -0.5148878081
Cl       2.1928754725    0.9482471256    1.0357103204
Cl      -0.3602808999    0.3844314057    2.3959096541
Cl       1.0480374457   -1.7283371044    0.9449012717
H       -0.5844643440   -1.5291654704   -0.9835140950
9    
Generated by ForceBalance from scan.xyz: Frame 6 of 24
C       -0.7641396685   -0.4596679024   -1.0808244059
C       -0.0735511050    0.4315181467   -0.3549426681
C        0.6685868603    0.0386430023    0.9161524506
Cl      -1.7740874882   -0.0630379879   -2.4196968958
Cl      -0.2077447035    2.1366557556   -0.6513281387
Cl       2.1340098865    1.0393645733    1.1803347067
Cl      -0.4563726431    0.2256907361    2.3257034663
Cl       1.1932493455   -1.6938713830    0.8545647305
H       -0.7118695753   -1.5189302347   -0.8685839839
9    
Generated by ForceBalance from scan.xyz: Frame 7 of 24
C       -0.8218995498   -0.4357874462   -1.0268162573
C       -0.0327080705    0.4418986997   -0.3904141115
C        0.6770071988    0.0455743796    0.9065085543
Cl      -1.8123765822   -0.0681190608   -2.3871203892
Cl       0.0007393396    2.1154933483   -0.8409808786
Cl       2.0210112874    1.1430055610    1.3368009947
Cl      -0.5345264768    0.0239918374    2.2585445073
Cl       1.3599323903   -1.6301244779    0.7536513910
H       -0.8696778616   -1.4712546732   -0.7141232344
9    
Generated by ForceBalance from scan.xyz: Frame 8 of 24
C       -0.9107510563   -0.3866576639   -0.9557959202
C       -0.0375578084    0.4618652093   -0.3957352879
C        0.6760591412    0.0477600287    0.9012588856
Cl      -1.8059021333   -0.0840159136   -2.3956214272
Cl       0.2905027687    2.0142671117   -1.0857416932
Cl       1.8241041446    1.2769281944    1.5042777998
Cl      -0.5570800693   -0.2595455596    2.1984852990
Cl       1.5964851458   -1.4926430762    0.6206410428
H       -1.1069904094   -1.3545471254   -0.5094713428
9    
Generated by ForceBalance from scan.xyz: Frame 9 of 24
C       -0.4153539431    0.6751860732   -1.1351981153
C       -0.3402385909   -0.3694512991   -0.2976518123
C        0.5271248569   -0.2783448847    0.9611690723
Cl      -1.4771556900    0.7856749763   -2.4868893200
Cl      -1.4098504029   -1.7241004181   -0.4479143256
Cl       0.8527066842   -1.8875331308    1.6893978530
Cl       2.1353647331    0.4536996484    0.5615334324
Cl      -0.3096439051    0.7496148817    2.1943061607
H        0.2283644716    1.5368846547   -1.0092325629
9    
Generated by ForceBalance from scan.xyz: Frame 10 of 24
C       -0.3559332663    0.6385410475   -1.1919915341
C       -0.3711814486   -0.3310810453   -0.2656295711
C        0.5062453581   -0.2652150614    0.9782351840
Cl      -1.4404315788    0.7391010343   -2.5273774143
Cl      -1.5906840324   -1.5656602575   -0.2708104150
Cl       0.9828748756   -1.9128239761    1.5346700595
Cl       2.0371857940    0.6387626086    0.6549267222
Cl      -0.4068006594    0.5556793907    2.3049967438
H        0.3781575096    1.4325151596   -1.1616107205
9    
Generated by ForceBalance from scan.xyz: Frame 11 of 24
C       -0.3136352173    0.6071795737   -1.2326319414
C       -0.4054297470   -0.2759944816   -0.2283877078
C        0.5124956106   -0.2520212501    0.9822415196
Cl      -1.3993459272    0.6845620154   -2.5697796264
Cl      -1.7016365157   -1.4279340955   -0.1461280904
Cl       1.1032526787   -1.9158767400    1.3603440054
Cl       1.9655151089    0.7827085053    0.7110503935
Cl      -0.3984050229    0.3863325746    2.4075351753
H        0.4797010937    1.3405703066   -1.2692904240
9    
Generated by ForceBalance from scan.xyz: Frame 12 of 24
C       -0.2827837855    0.5749455875   -1.2619193800
C       -0.4564085372   -0.2043127420   -0.1854829680
C        0.5014430186   -0.2320800139    0.9921638159
Cl      -1.3534467600    0.6270011418   -2.6128260957
Cl      -1.8187508261   -1.2708151682   -0.0412087011
Cl       1.1677043048   -1.8996369540    1.1971613076
Cl       1.8895474272    0.8983638059    0.7734015625
Cl      -0.3723030499    0.2431167040    2.5007805708
H        0.5659590032    1.2382532881   -1.3498513198
9    
Generated by ForceBalance from scan.xyz: Frame 13 of 24
C       -0.2538577377    0.5277738607   -1.2849819879
C       -0.5014550045   -0.1387109180   -0.1485735972
C        0.4885478007   -0.2110868849    1.0018376054
Cl      -1.2996742010    0.5472265290   -2.6556066747
Cl      -1.9184479105   -1.1243643804    0.0371872734
Cl       1.2397500388   -1.8551201294    1.0383844528
Cl       1.7970179130    1.0217892399    0.8489108235
Cl      -0.3471723389    0.0876060726    2.5744012361
H        0.6415115561    1.1207630398   -1.4085332655
9    
Generated by ForceBalance from scan.xyz: Frame 14 of 24
C       -0.2238281018    0.4682092584   -1.3025627031
C       -0.5404339654   -0.0777643964   -0.1192515345
C        0.4773605332   -0.1922399444    1.0087550759
Cl      -1.2476762583    0.4718893563   -2.6886411522
Cl      -2.0246460454   -0.9485005114    0.1051619376
Cl       1.3280251710   -1.7821240411    0.8805579047
Cl       1.6906600248    1.1450049980    0.9368314548
Cl      -0.3169042347   -0.0874064829    2.6241623371
H        0.7213317522    0.9723395172   -1.4533409205
9    
Generated by ForceBalance from scan.xyz: Frame 15 of 24
C       -0.2011542326    0.3838797440   -1.3163681372
C       -0.5765203918   -0.0394343124   -0.1005061643
C        0.4651264161   -0.1846648392    1.0126464583
Cl      -1.2176779074    0.4287390890   -2.7060804184
Cl      -2.1570239848   -0.6919632807    0.1788550578
Cl       1.4576378430   -1.6693889721    0.7171998377
Cl       1.5503471557    1.2655973560    1.0473496902
Cl      -0.2826655832   -0.3157254189    2.6405085405
H        0.8021478859    0.7515180086   -1.4924652939
9    
Generated by ForceBalance from scan.xyz: Frame 16 of 24
C       -0.1689888067    0.2505875508   -1.3415896233
C       -0.5769499089   -0.0425423753   -0.0991049142
C        0.4687025360   -0.1480448965    1.0226821149
Cl      -1.1991094304    0.4197345496   -2.7113436340
Cl      -2.2487802655   -0.2860671859    0.2742093083
Cl       1.6918707923   -1.4199257425    0.5926229622
Cl       1.3379155420    1.4375783993    1.1904104167
Cl      -0.2330618806   -0.5690784540    2.6109991386
H        0.8819042157    0.4027796974   -1.5583544239
9    
Generated by ForceBalance from scan.xyz: Frame 17 of 24
C       -0.1588930567    0.1303507205   -1.3697631126
C       -0.5568558358   -0.0488197427   -0.1018169939
C        0.4732883257   -0.1469271318    1.0259915826
Cl      -1.2087567875    0.4328670347   -2.7012735280
Cl      -2.2242644582    0.0985767796    0.3488238103
Cl       1.8674023699   -1.1874409029    0.5049233046
Cl       1.1253836652    1.5112465370    1.3745654150
Cl      -0.1942525898   -0.8459645300    2.5298474855
H        0.8887860250    0.0780498874   -1.6378777306
9    
Generated by ForceBalance from scan.xyz: Frame 18 of 24
C       -0.1632371289    0.0504122215   -1.3901152812
C       -0.5316875480    0.0001929168   -0.1018020499
C        0.4837841758   -0.1368451246    1.0255148629
Cl      -1.2280207671    0.3861593062   -2.7028986094
Cl      -2.1552776901    0.3697050183    0.3888507269
Cl       1.9662155011   -1.0126857074    0.4634250326
Cl       0.9893172511    1.5218042955    1.5553064067
Cl      -0.1795826339   -1.0389462695    2.4272556971
H        0.8582869403   -0.1394946821   -1.6905138555
9    
Generated by ForceBalance from scan.xyz: Frame 19 of 24
C       -0.1761899372   -0.0109934828   -1.4010562538
C       -0.5048650423    0.0778632467   -0.1046407565
C        0.4963876373   -0.1139360362    1.0221073917
Cl      -1.2562963875    0.3052720352   -2.7073004201
Cl      -2.0863352458    0.5864302419    0.4004565416
Cl       2.0324920999   -0.8646768532    0.4381434215
Cl       0.9010516599    1.5025351618    1.7297946430
Cl      -0.1782869704   -1.1783834406    2.3085266296
H        0.8158577560   -0.3050324662   -1.7138357972
9    
Generated by ForceBalance from scan.xyz: Frame 20 of 24
C       -0.1930349323   -0.0645017020   -1.4019903835
C       -0.4722405764    0.1652255591   -0.1115201792
C        0.5130394828   -0.0846485023    1.0162774857
Cl      -1.2912943710    0.2106070643   -2.7028554814
Cl      -2.0149930314    0.7816114209    0.3927113906
Cl       2.0901424573   -0.7245417293    0.4191400457
Cl       0.8360201088    1.4597870001    1.8974562738
Cl      -0.1757628173   -1.2903731532    2.1725293577
H        0.7680173188   -0.4481644728   -1.7138318125
9    
Generated by ForceBalance from scan.xyz: Frame 21 of 24
C       -0.2144098837   -0.1088580961   -1.3915608234
C       -0.4384563504    0.2598344638   -0.1223747054
C        0.5237341976   -0.0506573469    1.0119968459
Cl      -1.3245190506    0.1268684448   -2.6895838916
Cl      -1.9376786313    0.9886375603    0.3615461091
Cl       2.1365247050   -0.5872223193    0.4127261083
Cl       0.7683771539    1.3965983450    2.0587542918
Cl      -0.1791171433   -1.3813501997    2.0231958411
H        0.7107081006   -0.5836358275   -1.6870625419
9    
Generated by ForceBalance from scan.xyz: Frame 22 of 24
C       -0.2465032675   -0.1600332321   -1.3705686946
C       -0.4155523474    0.3347913434   -0.1356223182
C        0.5238194586   -0.0255763204    1.0083576110
Cl      -1.3573908961    0.0456311391   -2.6717769533
Cl      -1.8620433415    1.1848318010    0.3063148738
Cl       2.1782049239   -0.4243549422    0.4158316100
Cl       0.6579767238    1.3034546997    2.2117857502
Cl      -0.1527481370   -1.4843151849    1.8579615400
H        0.6376612854   -0.7251259672   -1.6332457226
9    
Generated by ForceBalance from scan.xyz: Frame 23 of 24
C       -0.2891197169   -0.2152876295   -1.3441232751
C       -0.4013995773    0.3808057654   -0.1481416300
C        0.5212208767   -0.0287342423    1.0030047211
Cl      -1.3673468639    0.0134579977   -2.6676020748
Cl      -1.7418855808    1.4140914390    0.2228444041
Cl       2.2196305399   -0.2302962376    0.4237337202
Cl       0.5150003164    1.1455226390    2.3558251737
Cl      -0.0578217208   -1.6259903355    1.6604496644
H        0.5290640260   -0.8926561557   -1.5544237236
9    
Generated by ForceBalance from scan.xyz: Frame 24 of 24
C       -0.3965324137   -0.3111801641   -1.2846116487
C       -0.4157346859    0.4010241051   -0.1495207023
C        0.5403329455    0.0121064214    0.9897578174
Cl      -1.3937785513   -0.0184693833   -2.6578746532
Cl      -1.4877355787    1.7423484731    0.0628954964
Cl       2.2553609202    0.1074175281    0.4000882767
Cl       0.3907852022    1.0580183166    2.4309510036
Cl       0.2107503760   -1.6994340811    1.4990839699
H        0.2810563295   -1.1488350859   -1.4017990701
