25

C      5.89691    0.94208    3.25846
C      7.11015    0.88460    2.57562
C      4.71673    1.03916    2.51671
C      1.05276    0.23932    2.88458
C      1.76894   -1.10833    1.03446
C      7.08590    0.92304    1.17336
C      0.56721   -0.92286    3.48168
C      1.67134    0.15407    1.62866
C      4.79596    1.06497    1.11669
C      1.24799   -2.20064    1.73545
C      3.55846    1.14651    0.25093
C      2.20477    1.38796    0.92738
N      5.96592    1.00684    0.45607
N      0.66387   -2.13852    2.91875
O      3.61890    1.00494   -0.95725
Br     1.38635   -3.94626    0.93096
H      5.86494    0.90986    4.34417
H      8.05562    0.81008    3.10529
H      3.76046    1.07078    3.02567
H      0.94516    1.19535    3.39039
H      2.23345   -1.24275    0.06359
H      8.01558    0.88235    0.60729
H      0.08010   -0.88624    4.45420
H      1.51627    1.67778    0.12871
H      2.26708    2.21958    1.63572
