25

C      1.57565    0.37511   -3.26357
C      1.20164   -0.22668   -4.51658
C      0.68993   -0.08160   -2.32914
C      0.11065   -1.01011   -4.26211
C      0.62717   -0.75692    1.35993
C     -0.75667   -0.17864    1.63623
C     -0.85309    0.74225   -0.52969
C      0.53870    0.18350   -0.87005
C     -0.74556   -1.88830   -5.10776
N      0.73841   -1.04162   -0.07513
O     -0.21317   -0.92970   -2.93006
O     -0.97852    1.00400    0.86636
H      2.39459    1.05907   -3.08076
H      1.68044   -0.09571   -5.47826
H      1.38761   -0.03677    1.71225
H      0.75398   -1.69014    1.91982
H     -1.52418   -0.93001    1.39656
H     -0.85757    0.11431    2.68455
H     -1.01470    1.69456   -1.04008
H     -1.61784    0.02263   -0.85367
H      1.27739    0.96357   -0.61265
H     -0.72534   -2.92458   -4.75217
H     -1.78931   -1.55445   -5.09902
H     -0.38702   -1.87054   -6.13958
H      1.65264   -1.43361   -0.29005
