32

C      8.03979   -2.66489    4.47191
C      1.71988   -0.96664   -0.01896
C      0.51273   -0.64698    0.60840
C      2.83406   -1.26591    0.76038
C      0.44034   -0.62812    2.00270
C      8.82577   -4.16459   -0.04061
C      8.42814   -4.40294   -1.32272
C      6.61695   -3.39708    0.05667
C      2.76712   -1.24736    2.16628
C      7.78876   -3.57900    0.78238
C      1.54865   -0.92021    2.81116
C      4.00090   -1.57958    2.89716
C      5.98358   -2.24972    3.21858
C      8.06820   -3.28756    2.16860
C      7.35212   -2.75061    3.20878
C      1.39078   -0.87514    4.31124
N      8.62484   -2.60988    5.47812
N      5.11109   -2.10854    2.25517
N      4.18450   -1.40398    4.19338
O      5.49706   -1.84583    4.41436
S      6.77431   -3.92259   -1.56714
H      1.79297   -0.98140   -1.10288
H     -0.36867   -0.41292    0.01694
H      3.77858   -1.50803    0.28620
H     -0.50284   -0.38011    2.48309
H      9.82141   -4.39245    0.32706
H      8.99952   -4.82951   -2.13687
H      5.69241   -2.97828    0.42492
H      9.07966   -3.56707    2.45552
H      1.70742   -1.81159    4.77941
H      2.01032   -0.09038    4.75475
H      0.34728   -0.68680    4.57618
