47

C      2.05648   -3.92232   -0.75775
C      4.38675   -6.79902   -1.02096
C      5.62446   -6.20026   -0.75043
C      3.23878   -6.01336   -1.03407
C      5.70475   -4.83257   -0.50872
C      5.69100   -1.86776    0.39528
C      5.26218   -0.50216    0.38072
C      3.30786   -4.63005   -0.77764
C      4.55828   -4.01353   -0.51402
C      4.70912   -2.59295   -0.24023
C      4.05468   -0.47559   -0.26663
C     -0.23363    1.80325    1.55766
C      0.17002    2.24560    0.12621
C     -0.67451   -0.69605    1.23303
C      1.70423    0.24001    1.35836
C     -0.49012    0.08497   -1.09054
C      0.26050    0.37392    1.84652
C      0.64772    1.05541   -0.72861
C     -2.40081   -1.18329   -0.37943
C      3.08812    0.61509   -0.60580
N      0.99282   -3.44652   -0.74195
N     -1.37518   -0.23046    0.03154
N      1.76181    0.32422   -0.09903
O      3.71390   -1.74328   -0.64900
H      4.32030   -7.86460   -1.21970
H      6.53009   -6.80076   -0.74257
H      2.26861   -6.45804   -1.23314
H      6.67381   -4.37604   -0.33267
H      6.58874   -2.26354    0.85109
H      5.77221    0.35072    0.80872
H      0.20608    2.48700    2.29328
H     -1.31881    1.84519    1.67617
H     -0.66728    2.74078   -0.37608
H      0.98633    2.97651    0.17549
H     -0.10775   -1.62421    1.04731
H     -1.45301   -0.93335    1.96756
H      2.31146    1.03549    1.83453
H      2.13214   -0.71827    1.67990
H     -1.11225    0.54808   -1.86835
H     -0.02699   -0.81924   -1.51980
H      0.27482    0.21075    2.93024
H      1.02314    1.44298   -1.68174
H     -2.95871   -0.77712   -1.23065
H     -3.10840   -1.34217    0.44184
H     -1.98610   -2.16325   -0.67530
H      3.51939    1.55911   -0.21643
H      3.03050    0.71009   -1.69642
