24

C     -0.48502   -1.66124    2.70628
C      0.72206   -1.35145    3.32817
C      4.83090   -1.01901    7.07179
C     -0.69343   -1.18891    1.40886
C      5.73516   -1.03437    8.09890
C      6.56363    0.24080    6.13400
C      1.68519   -0.58683    2.65327
C      5.30503   -0.28323    5.93366
C      1.36082   -0.16439    1.34168
C      4.52559   -0.11941    4.70859
C      2.93826   -0.28173    3.33615
N      0.20791   -0.45716    0.74064
N      3.26572   -0.65932    4.54910
N      4.95942    0.55428    3.65981
O      3.90071    0.44833    2.73925
O      2.24260    0.57451    0.63581
S      7.17677   -0.15389    7.69649
H     -1.24452   -2.25105    3.20874
H      0.94455   -1.68872    4.33538
H      3.86242   -1.50431    7.10279
H     -1.61927   -1.40286    0.87832
H      5.64217   -1.50919    9.06714
H      7.14751    0.83252    5.44120
H      1.81487    0.74743   -0.22440
