39

C     -0.57593   -1.56101   -0.56595
C     -1.57337   -0.88032    0.14876
C     -0.43507   -2.94868   -0.45769
C     -2.45499   -1.57183    0.98967
C     -4.34323   -9.36261    1.54728
C     -1.31343   -3.64109    0.37370
C     -4.38333   -8.41020    0.46790
C     -2.29998   -2.94882    1.07062
C     -5.13648  -10.42928    1.20092
C     -5.22312   -8.94223   -0.51801
C     -1.32866   -5.11351    0.60832
C     -3.69484   -7.12718    0.40666
C     -5.44578  -11.68688    1.94893
C     -5.64548   -8.37873   -1.83647
C     -6.61546  -11.01248   -0.76122
C     -2.86170   -6.75748    1.65536
N     -5.66203  -10.16186   -0.06541
N     -2.31128   -5.42000    1.55241
O     -0.59095   -5.93878    0.09768
O     -3.71934   -6.35575   -0.54843
O     -3.01623   -3.84027    3.49533
O     -4.63768   -4.22093    1.60894
S     -3.25964   -4.07414    2.07185
H      0.09446   -1.00015   -1.21105
H     -1.66547    0.19757    0.04985
H      0.33035   -3.49349   -1.00200
H     -3.22784   -1.05305    1.54844
H     -3.78760   -9.28345    2.47257
H     -6.52097  -11.81335    2.12430
H     -5.08744  -12.58254    1.42614
H     -4.95307  -11.65652    2.92338
H     -5.27194   -8.98528   -2.67149
H     -6.73761   -8.33180   -1.92251
H     -5.24058   -7.37338   -1.94024
H     -7.64671  -10.75803   -0.49070
H     -6.49782  -10.89845   -1.83952
H     -6.43416  -12.05746   -0.50599
H     -2.02743   -7.45750    1.75498
H     -3.46577   -6.82796    2.56304
