25

C     -3.24987   -0.76220   -2.94828
C     -4.56250   -1.07199   -3.30925
C     -2.43930    0.03033   -3.76974
C     -5.08054   -0.57288   -4.49840
C     -2.97837    0.50605   -4.97407
C     -4.29481    0.21869   -5.33418
C      2.79997    1.71592   -2.57577
C      2.32802    3.17188   -2.59243
C      0.54441    1.69093   -2.52055
C     -0.65227    1.60229   -3.45015
O      1.65602    1.01653   -3.07292
O      0.91117    3.06579   -2.37328
O     -1.14539    0.25155   -3.39076
F     -6.34983   -0.84637   -4.86749
F     -2.23076    1.24247   -5.82249
F     -4.78758    0.69263   -6.48998
H     -2.82472   -1.13497   -2.02218
H     -5.19279   -1.68690   -2.67510
H      3.64076    1.51041   -3.24042
H      3.04388    1.38152   -1.55757
H      2.76780    3.77911   -1.79617
H      2.51188    3.64883   -3.56203
H      0.29941    1.27590   -1.52994
H     -0.34564    1.86654   -4.46459
H     -1.42028    2.30109   -3.10217
