25

C      0.23722   -1.58631   -3.79862
C      0.84780   -2.31378   -4.82260
C     -0.07197   -0.76211   -6.45417
C     -0.53063   -0.45227   -4.07299
C     -0.67863   -0.07113   -5.41269
C      0.69254   -1.88712   -6.14176
C      2.64192    2.24509   -2.54042
C      1.92866    3.54981   -2.18319
C      0.47840    1.74074   -2.10271
C     -0.84670    1.58075   -2.83429
O      1.55759    1.41026   -2.95788
O      0.64235    3.10839   -1.71846
O     -1.17053    0.19617   -3.04542
F     -1.44403    1.00912   -5.71318
Br     1.53569   -2.85953   -7.56250
H      0.35257   -1.88687   -2.76176
H      1.44196   -3.19185   -4.59351
H     -0.21414   -0.42598   -7.47545
H      3.34474    2.33080   -3.37082
H      3.14968    1.80921   -1.66875
H      2.42122    4.10992   -1.38355
H      1.80168    4.19569   -3.05994
H      0.50361    1.11155   -1.19887
H     -0.81704    2.13967   -3.77218
H     -1.64530    1.97631   -2.20419
