24

C      1.99249   -1.37364    0.12475
C      0.74347   -1.25186    0.72599
C      3.13348   -1.58212    0.90316
C      0.62119   -1.30667    2.12673
C      3.03419   -1.66681    2.29849
C      1.77047   -1.50584    2.91176
C     -0.76925   -1.18083    2.66144
C      1.97501   -0.42717    5.00753
C     -2.16363   -0.68791    4.49708
N      4.16028   -1.86187    3.11258
O     -1.76692   -1.36421    1.98313
O      1.72996   -1.64855    4.28549
O     -0.83174   -0.81165    3.96097
H      2.08268   -1.31821   -0.95660
H     -0.15592   -1.11663    0.13565
H      4.10730   -1.69208    0.43010
H      1.98082   -0.69626    6.06594
H      1.17533    0.29326    4.81575
H      2.94451    0.00087    4.72823
H     -2.02922   -0.39948    5.53980
H     -2.69307   -1.64083    4.42653
H     -2.72635    0.07534    3.95415
H      4.91837   -2.34836    2.64733
H      3.92212   -2.30296    3.99569
