21

C     -1.66801    3.99996    0.51072
C     -2.53810    3.71398   -0.50797
C     -0.86018    2.88210    0.91198
C     -1.14090    1.75550    0.16719
C     -1.76987   -1.40641    1.61207
C     -1.00765   -0.31053    1.55611
C      0.13664    2.96458    2.04157
C     -0.57294    0.35468    0.26867
N      0.90343    0.40518    0.23017
S     -2.39101    2.06425   -1.00949
H     -1.59495    4.98149    0.97063
H     -3.24640    4.37361   -0.99303
H     -2.06671   -1.84619    2.56096
H     -2.13318   -1.89416    0.70878
H     -0.65382    0.16323    2.47030
H     -0.37242    2.91848    3.01240
H      0.86099    2.15107    1.98781
H      0.68011    3.91501    2.00688
H     -0.99214   -0.23549   -0.56207
H      1.20136    0.88558   -0.61791
H      1.26836   -0.54575    0.19070
