25

C      0.09656   -0.32094    1.05038
C      6.07442   -1.31040    7.94822
C      1.26246    0.04390    1.71960
C      5.17315   -1.16097    6.90791
C     -0.66615   -1.36102    1.58404
C      7.18003   -0.45151    7.96130
C      1.64059   -0.62667    2.89293
C      5.45702   -0.15908    5.96432
C      0.78643   -1.66611    3.33863
C      4.53346    0.04878    4.83194
C      2.86005   -0.24611    3.59414
N     -0.32992   -2.01861    2.70170
N      7.40005    0.48828    7.03211
N      6.53720    0.63617    6.03030
N      3.39777   -0.72360    4.68558
N      4.70519    0.95721    3.89447
O      3.59009    0.76723    3.06173
O      1.08584   -2.35465    4.45870
H     -0.21421    0.18409    0.14194
H      5.93841   -2.05796    8.72454
H      1.88976    0.84622    1.34505
H      4.28331   -1.77199    6.80013
H     -1.58555   -1.68487    1.10014
H      7.93285   -0.50522    8.74407
H      0.36607   -3.00636    4.56253
