39

C      2.39533   -3.29573   -2.16155
C      2.37921   -2.07981   -1.52753
C      3.80986   -3.80276   -0.50914
C      0.44048    1.10170   -0.92058
C     -0.10026   -1.08488   -0.15696
C     -0.50792    1.27128    0.27282
C     -1.21355   -0.11199    0.27926
C      4.73985   -4.61388    0.34378
C      0.25081    1.60130    1.56454
C     -1.89492   -0.50828    1.58637
C      2.58123   -3.66276   -4.65524
C      1.66220   -3.66979   -3.42120
C      1.65251   -0.81298   -1.87302
N      3.21303   -4.25492   -1.57614
N      0.97870   -0.24715   -0.71505
O     -2.18163   -0.14574   -0.79786
S      3.41500   -2.13658   -0.11877
H     -0.12022    1.19036   -1.86623
H      1.25282    1.83733   -0.92975
H      0.27685   -1.67702    0.68357
H     -0.51684   -1.78032   -0.89755
H     -1.24673    2.05878    0.07913
H      5.73099   -4.15226    0.40569
H      4.35736   -4.71695    1.36496
H      4.84078   -5.60817   -0.09575
H      0.99401    0.83185    1.79380
H     -0.42557    1.69592    2.41947
H      0.78131    2.55331    1.45610
H     -2.66638    0.22091    1.86396
H     -1.18239   -0.57509    2.41255
H     -2.37722   -1.48335    1.46716
H      2.98240   -2.65980   -4.83687
H      2.03592   -3.98063   -5.55058
H      3.42580   -4.34233   -4.50709
H      1.24577   -4.67379   -3.28484
H      0.81917   -2.99129   -3.58197
H      2.36580   -0.06469   -2.24152
H      0.95217   -1.01880   -2.70254
H     -2.86706    0.51251   -0.59785
