19

C      1.96965   -1.43552   -0.06803
C      0.83855   -0.69556    1.95725
C      2.59639   -2.38156    2.09083
C      1.01717   -0.64179    0.57081
C      2.75450   -2.28434    0.71105
C      1.63345   -1.57069    2.68542
C      0.12603    0.27517   -0.23118
C      4.95847   -2.75954   -0.12618
O      3.65781   -3.14786    0.07373
F      1.46605   -1.64558    4.02389
F      0.52971    0.38764   -1.51558
F     -1.15562   -0.17303   -0.25028
F      0.09393    1.52347    0.29689
Cl     5.08327   -1.26586   -1.15207
Cl     5.74254   -4.12606   -0.96335
Cl     5.82729   -2.42882    1.43676
H      2.10211   -1.40279   -1.14197
H      0.10139   -0.08129    2.46384
H      3.19455   -3.06253    2.68461
