37

C     -0.68588   -2.40896    1.41600
C      0.16641   -1.39358    1.87113
C     -0.20783   -3.43030    0.58549
C      3.46174   -8.16192   -3.37661
C      4.22918   -8.98408   -4.21329
C      1.51940   -1.37804    1.50426
C      1.37780   -9.11734   -4.22617
C      1.14013   -3.41642    0.21849
C      2.05423   -8.21377   -3.36724
C      3.54258   -9.85220   -5.04637
C      2.15028   -9.91043   -5.05010
C      1.96941   -2.39861    0.68243
C      1.92536   -4.35331   -0.64101
C      1.29851   -7.30883   -2.47216
C      2.91093  -11.26677   -6.66158
C     -0.14407   -7.60232   -2.11693
N      3.18980   -4.10875   -0.82336
N      1.94322   -6.28230   -2.01913
N      1.28481   -5.42375   -1.18666
O      3.97546   -1.64419   -0.93701
O      4.54796   -3.03125    1.09892
O      4.04917  -10.77355   -5.93296
O      1.72855  -10.87241   -5.94557
S      3.62412   -2.69727    0.01520
H     -1.73120   -2.40427    1.71119
H     -0.22560   -0.61123    2.51485
H     -0.89070   -4.20610    0.24737
H      3.95547   -7.45873   -2.71557
H      5.31369   -8.94501   -4.20696
H      2.19004   -0.59721    1.85015
H      0.29664   -9.18242   -4.27268
H      2.89931  -10.81432   -7.66213
H      2.95822  -12.35653   -6.71073
H     -0.29585   -7.53555   -1.03292
H     -0.82990   -6.89476   -2.60045
H     -0.44189   -8.60750   -2.40989
H      0.29084   -5.52450   -1.00926
