25

C      5.21280   -1.48435   -2.05759
C      4.15691   -1.43284   -2.97122
C      5.08048   -0.80746   -0.84575
C      1.52389   -0.36394    2.76768
C      0.38836   -0.31432    0.65402
C      3.01214   -0.70116   -2.63321
C      0.63364   -1.35825    3.16730
C      1.40039    0.18030    1.48003
C      3.89338   -0.10563   -0.59948
C     -0.44440   -1.30999    1.17296
C      3.72264    0.62013    0.70749
C      2.36111    1.24771    0.99536
N      2.87497   -0.04738   -1.47532
N     -0.34881   -1.83246    2.38043
O      4.63294    0.66879    1.52266
Br    -1.85435   -1.98964    0.04049
H      6.11742   -2.04184   -2.28537
H      4.21173   -1.94638   -3.92676
H      5.86012   -0.80866   -0.09122
H      2.30295   -0.02109    3.44262
H      0.26405    0.05119   -0.35809
H      2.17233   -0.64151   -3.32330
H      0.70200   -1.79977    4.15952
H      1.96881    1.72032    0.09420
H      2.51502    1.99800    1.77393
