35

C     -0.20077   -0.10411   -0.07690
C     -1.12827    0.43787   -0.64513
C      1.92364   -1.35208   -0.13519
C      0.95582   -0.77407    1.99482
C      0.89105   -0.74396    0.59235
C      2.99846   -1.97634    0.50388
C      2.02053   -1.38235    2.66308
C      3.05871   -1.98290    1.91403
C      4.24509   -4.14226    2.62534
C     -2.24723    1.08838   -1.33097
C      3.50647   -3.97510   -0.98181
C      1.49207   -2.75515    4.74175
C      4.24244   -2.61303    2.61473
C      4.02916   -2.65723   -0.37816
C      1.97973   -1.40741    4.17958
O      3.32635   -4.85017    2.29379
O      5.40673   -4.70363    3.08327
H      1.88150   -1.33682   -1.22123
H      0.15782   -0.30893    2.56717
H     -2.53047    2.01776   -0.82523
H     -1.98345    1.33289   -2.36536
H     -3.12687    0.43554   -1.35281
H      3.22658   -4.67927   -0.19513
H      4.27249   -4.43963   -1.61239
H      2.62256   -3.79315   -1.60131
H      0.48446   -2.97738    4.37667
H      1.46332   -2.73139    5.83661
H      2.13363   -3.58406    4.43163
H      4.28721   -2.29855    3.66129
H      5.18159   -2.26889    2.16535
H      4.30357   -1.97513   -1.19159
H      4.95422   -2.86009    0.16803
H      2.95883   -1.16109    4.60651
H      1.30493   -0.61648    4.52220
H      6.04753   -4.00684    3.30607
