30

C     -1.68338    1.39774    1.19571
C     -1.14203    2.36501    0.34161
C     -1.25144    0.07516    1.08687
C     -0.19769    1.99779   -0.61604
C     -0.27278   -0.30745    0.16032
C      0.24302    0.66760   -0.71178
C      0.33212   -2.19404   -1.37094
C      1.46627   -1.49912   -2.12123
C      0.20213   -1.74234    0.09529
C      1.51612   -1.98317    0.87263
C      1.44891   -1.53685    2.33410
C      2.38146   -2.36809    3.22141
O      1.81801   -0.17105    2.40166
F      1.96411   -3.66041    3.28403
F      2.38592   -1.88878    4.49370
F      3.65851   -2.37315    2.78801
S      1.46947    0.33868   -1.95884
H     -2.43965    1.66904    1.92736
H     -1.46841    3.39986    0.40495
H     -1.68168   -0.68470    1.73741
H      0.19855    2.74431   -1.30025
H     -0.61867   -2.00426   -1.87939
H      0.51441   -3.27491   -1.41391
H      2.43840   -1.85826   -1.77614
H      1.39447   -1.70985   -3.19112
H     -0.56890   -2.36696    0.56205
H      1.75592   -3.05039    0.81907
H      2.34622   -1.43506    0.42037
H      0.44207   -1.70239    2.74134
H      1.50934    0.20254    3.24190
