30

C     -1.92274    1.89923    1.35258
C     -1.53678    2.65994    0.24263
C     -1.48038    0.58040    1.46031
C     -0.72481    2.09602   -0.73954
C     -0.64901   -0.00189    0.49318
C     -0.27007    0.77054   -0.62056
C     -0.13990   -2.16408   -0.67998
C      0.91103   -1.62143   -1.64162
C     -0.16877   -1.43037    0.67192
C      1.18213   -1.39768    1.42807
C      1.84727   -2.71799    1.82552
C      0.97448   -3.62680    2.69883
O      2.27044   -3.43018    0.66992
F      0.55751   -2.98359    3.81466
F      1.69944   -4.71012    3.10343
F     -0.11738   -4.10683    2.06665
S      0.78735    0.19505   -1.93171
H     -2.56482    2.32649    2.11789
H     -1.87544    3.68722    0.13485
H     -1.78228   -0.02181    2.31574
H     -0.44031    2.68284   -1.60982
H     -1.13401   -2.08082   -1.13262
H      0.06716   -3.22559   -0.52513
H      1.91429   -1.84384   -1.27703
H      0.79868   -2.08417   -2.62544
H     -0.90119   -1.93959    1.30418
H      1.92125   -0.84373    0.84100
H      1.03583   -0.82153    2.34681
H      2.70938   -2.47109    2.46145
H      2.81894   -4.18151    0.94955
