44

C     -1.82258    5.55492    0.75785
C     -2.36364    3.26139    0.10944
C     -2.25873    4.59797   -0.21092
C     -2.79393    2.27975   -0.82093
C     -3.15343    2.70033   -2.09393
C     -2.58965    5.06747   -1.55226
C      1.53788   -0.31321    1.29809
C     -2.96080    0.84283   -0.42902
C      1.38840    0.01891   -1.67018
C      0.50663   -0.97235   -0.89271
C     -0.72205   -1.48543    1.27718
C      2.33692    0.81727   -0.74897
C     -2.12447   -1.12063    0.77111
C     -0.63309    0.78613    0.57226
C      0.21606   -0.50759    0.54442
C     -3.68788    1.81600   -3.18415
C      3.84140    0.47678    1.20436
N     -1.45471    6.30524    1.57044
N     -3.03067    4.02203   -2.39658
N      2.57833    0.16431    0.54149
N     -2.00587    0.29869    0.38164
O     -2.52428    6.21352   -1.98119
O      1.65334   -0.59293    2.49228
O     -3.93776    0.18664   -0.81079
H     -2.12595    2.95510    1.12344
H      1.96960   -0.52990   -2.41647
H      0.76889    0.73093   -2.22472
H     -0.43047   -1.14567   -1.43200
H      1.01160   -1.94153   -0.82711
H     -0.63001   -1.32345    2.35259
H     -0.46893   -2.52904    1.07432
H      3.30782    0.94608   -1.23379
H      1.94512    1.83013   -0.57892
H     -2.43140   -1.70580   -0.10038
H     -2.89849   -1.24361    1.53352
H     -0.52027    1.27701    1.54673
H     -0.36404    1.50058   -0.20564
H     -4.75895    1.65239   -3.03412
H     -3.21992    0.83213   -3.16130
H     -3.53025    2.27197   -4.16619
H      4.67302    0.22976    0.53722
H      3.91541   -0.11018    2.11838
H      3.90220    1.54174    1.46534
H     -3.27755    4.34081   -3.33008
