27

C      2.16796    1.97541    1.93580
C      1.82684    2.40401    3.23237
C     -1.00201    2.87592   -1.82883
C     -2.07409    3.69904   -1.37810
C     -0.07623    1.04928    1.58848
C      1.23347    1.32002    1.12907
C      0.54530    2.13015    3.67223
C     -0.38076    1.45995    2.87054
C      0.16945    3.12980   -1.15753
C     -1.67477    4.54674   -0.37237
C     -1.41361    2.08779    4.75287
N      1.60060    0.96481   -0.20814
O      2.76371    3.11955   -0.92138
O      1.66181    1.56598   -2.64936
O     -0.01905    2.40031    4.90031
O     -1.55885    1.29133    3.56262
S      0.00405    4.37775    0.04206
S      1.68775    2.23239   -1.34898
Cl    -2.66211    5.70616    0.44556
H      3.15674    2.16965    1.53659
H      2.54428    2.91738    3.86401
H     -1.07606    2.13903   -2.62144
H     -3.08201    3.67793   -1.77657
H     -0.81414    0.56281    0.95759
H     -1.74907    1.51091    5.61667
H     -1.98531    3.01825    4.63602
H      1.03780    0.21608   -0.60919
