27

C      0.24504    1.73420    1.21980
C     -0.10049    2.49669    2.35259
C      2.12723   -2.47101   -2.46038
C      1.68863   -3.41733   -3.43184
C     -0.89204   -0.24400    2.11608
C     -0.15158    0.39879    1.10156
C     -0.81358    1.85237    3.34541
C     -1.19303    0.51282    3.22939
C      1.27923   -2.39707   -1.38304
C      0.52076   -4.03172   -3.05053
C     -1.78338    1.23188    5.26394
N      0.16630   -0.35928   -0.08148
O      2.78474   -0.63797   -0.20373
O      1.35957   -2.16260    1.26170
O     -1.29011    2.36690    4.53150
O     -1.92257    0.14212    4.33778
S     -0.07444   -3.48212   -1.51123
S      1.54470   -1.38210    0.04146
Cl    -0.34485   -5.23393   -3.93847
H      0.84131    2.18747    0.43279
H      0.19100    3.53744    2.44761
H      3.02850   -1.87242   -2.53348
H      2.20376   -3.63730   -4.35979
H     -1.19290   -1.28006    2.01686
H     -1.05683    0.95820    6.04080
H     -2.75988    1.47250    5.68871
H      0.31334    0.24861   -0.88836
