34

C     -0.63624    0.46524   -2.23859
C     -0.06071   -0.34365   -1.24954
C     -5.16299   -2.32508   -7.73494
C     -4.32950   -1.98090   -6.66847
C     -6.53442   -2.49789   -7.52858
C     -1.55358   -0.08277   -3.12875
C     -0.41526   -1.68590   -1.16187
C     -6.25917   -1.94003   -5.20286
C     -4.87963   -1.79271   -5.39310
C     -7.10153   -2.30982   -6.25802
C     -1.92679   -1.43287   -3.04371
C     -1.35472   -2.24467   -2.04690
C     -4.04941   -1.31563   -4.23530
C     -2.64580   -3.38046   -4.35017
C     -2.92035   -4.27557   -3.14403
C     -8.58255   -2.51182   -6.03419
N     -2.83746   -1.96822   -4.00817
O     -4.42202   -0.35901   -3.56257
S     -1.71813   -3.97006   -1.80211
H     -0.36719    1.51460   -2.31815
H      0.66213    0.06914   -0.55104
H     -4.74416   -2.45279   -8.72983
H     -3.26415   -1.83613   -6.82861
H     -7.17424   -2.77026   -8.36542
H     -2.00553    0.53415   -3.89748
H      0.03011   -2.31614   -0.39568
H     -6.67149   -1.74793   -4.21559
H     -1.62131   -3.52467   -4.70696
H     -3.32752   -3.65044   -5.15356
H     -3.93807   -4.10959   -2.78108
H     -2.81225   -5.32937   -3.41562
H     -8.81373   -3.57278   -5.88036
H     -8.93021   -1.96725   -5.15204
H     -9.16570   -2.17191   -6.89546
