31

C     -8.92565    0.47513    0.77792
C     -1.09709    0.64270   -0.56960
C     -0.17413    1.55954   -0.07499
C     -1.54536    1.97509    1.91908
C     -4.22535   -0.34163    0.98789
C     -8.94448    0.62653    2.18542
C     -2.48280    1.04602    1.43312
C     -3.75796    0.56768    1.93368
C     -2.24245    0.39573    0.19471
C     -0.41010    2.20875    1.15464
C     -7.82948    0.67039    2.99740
C     -9.63805    0.83614    4.20107
C     -4.33107    0.96127    3.21313
C    -10.37392    0.99392    5.48171
N     -8.80431    0.34022   -0.37663
N    -10.08578    0.73415    2.99446
N     -5.56159    0.95900    3.61170
N     -3.31775   -0.44697   -0.03963
N     -6.50169    0.52702    2.70163
O     -8.24151    0.80036    4.27714
Br     0.89147    3.47397    1.77994
H     -0.92395    0.14336   -1.51906
H      0.72791    1.78060   -0.63518
H     -1.70101    2.50293    2.85413
H     -5.10109   -0.97578    1.00030
H     -3.63774    1.34016    3.96149
H    -10.13322    0.18106    6.17421
H    -10.11147    1.93872    5.96882
H    -11.44407    0.98386    5.27265
H     -3.43926   -1.03124   -0.85560
H     -6.28778    0.62782    1.70707
