37

C      0.95562   -2.57079    0.96680
C     -4.36202   -0.34112    3.05557
C     -4.59334    1.03492    3.16243
C     -3.28341   -0.79401    2.30190
C     -3.73764    1.93826    2.52724
C      1.25239   -1.73272   -0.14558
C     -2.40192    0.09681    1.65139
C      2.31087   -2.02460   -1.07937
C     -2.64214    1.49004    1.78371
C      2.45143   -1.04856   -2.03065
C      0.59493   -0.53003   -0.41267
C     -1.34062   -0.50911    0.85366
C      3.19431   -3.24581   -1.03416
C      3.44851   -1.07510   -3.15637
C      3.94622   -3.43422   -2.36160
C      4.54685   -2.11220   -2.86001
C     -0.64470    2.76223    1.81428
N      0.73129   -3.27652    1.87010
N     -0.40346    0.14236    0.25000
O     -1.87564    2.43418    1.15183
S      1.31295    0.25450   -1.79958
H     -5.02002   -1.05070    3.54869
H     -5.43745    1.40522    3.73840
H     -3.10425   -1.86246    2.20624
H     -3.90520    3.00971    2.59082
H     -1.40059   -1.60121    0.78360
H      3.91021   -3.14100   -0.20794
H      2.59530   -4.13342   -0.80274
H      2.93916   -1.33052   -4.09557
H      3.89251   -0.08416   -3.30441
H      4.73291   -4.18548   -2.23557
H      3.25336   -3.82228   -3.11912
H      5.14337   -2.27905   -3.76317
H      5.22500   -1.71149   -2.09629
H     -0.13787    3.48244    1.17000
H     -0.01185    1.87924    1.93469
H     -0.85113    3.21765    2.79123
