42

C     -0.62359    3.68443  -11.43104
C     -1.38677    4.72200  -10.88514
C      0.04910    2.80038  -10.58017
C      2.76899    0.70020   -1.06968
C     -1.48168    4.88291   -9.50164
C     -0.03483    2.94602   -9.19464
C      1.74718   -0.01113   -0.44630
C      0.17109    0.96391   -2.02871
C      2.53379    1.54972   -2.15981
C     -0.80162    3.99052   -8.66552
C      1.21430    1.68437   -2.63783
C      0.45980    0.14137   -0.95417
C     -0.59760    3.82163   -5.19509
C     -1.48450    4.92046   -5.37218
C     -0.23955    3.19779   -3.89093
C      3.70696    2.26259   -2.80410
C      3.25994    3.31165   -3.82079
C      2.10685    2.75950   -4.65710
C     -2.17535    5.77091   -4.35668
N     -0.24835    3.35486   -6.40267
N     -1.64241    5.10911   -6.68381
N     -0.89255    4.14844   -7.25609
N      0.94949    2.49515   -3.78468
O     -1.04546    3.30862   -2.96467
F     -0.55849   -0.55041   -0.37644
H     -0.55473    3.56482  -12.50865
H     -1.91375    5.41274  -11.53766
H      0.64193    1.98959  -10.99470
H      3.78708    0.59988   -0.69980
H     -2.07003    5.68139   -9.06524
H      0.47753    2.26481   -8.52534
H      1.92944   -0.66283    0.40212
H     -0.85039    1.04817   -2.37311
H      4.33222    2.71913   -2.02927
H      4.33686    1.51748   -3.30786
H      2.91960    4.22154   -3.31348
H      4.09116    3.59171   -4.47644
H      1.81669    3.46213   -5.43023
H      2.39970    1.82585   -5.15202
H     -1.46555    6.14992   -3.61630
H     -2.66863    6.61130   -4.84961
H     -2.91524    5.18167   -3.80888
