27

C     -0.94997   -1.96473   -4.50916
C      2.55066   -0.09812    0.51346
C      1.41093   -2.21032    0.81286
C      1.39912    0.59100    0.89380
C      0.26205   -1.53612    1.21869
C      0.05225   -2.53557   -3.66966
C      2.56531   -1.49955    0.43718
C      0.11581   -3.93315   -3.43403
C      1.09093   -4.44690   -2.58835
C      0.25949   -0.13762    1.23713
C      2.00726   -3.54388   -1.98162
C      1.02879   -1.75193   -3.02762
C      3.80901   -2.15407   -0.00510
N     -1.76905   -1.49896   -5.19480
N      1.96217   -2.23208   -2.23607
N      4.03317   -3.25976   -0.62880
N      2.93895   -4.01088   -1.08151
Cl    -1.03824   -4.96924   -4.19643
Cl     1.20785   -6.15165   -2.24499
Cl     1.03230   -0.02384   -3.26289
Br    -1.33452    0.79026    1.74379
H      3.44001    0.46436    0.24044
H      1.40996   -3.29454    0.79300
H      1.38803    1.67550    0.92122
H     -0.62544   -2.08862    1.50951
H      4.73240   -1.62976    0.24454
H      3.20813   -4.97923   -1.21585
