22

C      1.82071   -0.89505    0.24028
C      0.84450   -0.35252    1.08118
C      2.05751   -1.18417    3.00283
C      3.03373   -1.74446    2.16990
C      2.92158   -1.58604    0.76798
C      0.97347   -0.49651    2.45907
C      4.16774   -2.46650    2.80682
C      3.83340   -1.96304   -1.40990
N      4.46352   -3.65205    2.38753
N      4.75951   -1.84696    3.90118
O      5.56200   -4.16387    3.14893
O      3.92514   -2.09514    0.00457
Br    -0.35364    0.25207    3.62612
H      1.71294   -0.76286   -0.82970
H     -0.00134    0.17936    0.65766
H      2.14736   -1.30986    4.07643
H      4.72518   -2.44831   -1.80790
H      3.82524   -0.90949   -1.71671
H      2.94111   -2.46677   -1.80084
H      4.81688   -0.83757    3.84096
H      5.61974   -2.29195    4.20363
H      5.70914   -5.02721    2.73306
