18   

C       -0.8336739444   -1.4334048861   -1.2121064144
C       -0.1697352743   -0.3462281972   -0.7128072135
C       -0.3635225376   -2.8679003690   -1.3806014513
C        1.0099960238    1.2742039596    0.7969274079
C       -1.4286617334    0.7542902441    1.1389839684
C       -0.0714820229    0.1949722070    0.7084843031
H       -1.4514698238   -1.1684395188   -2.0637481835
H       -0.0551207958    0.4501248935   -1.4408990324
H       -0.4133048977   -3.1636591634   -2.4327678900
H       -0.9968060865   -3.5395809283   -0.7939388395
H        0.6699443844   -2.9693059344   -1.0359909846
H        0.7760703916    2.1147441158    0.1359399745
H        1.9795273468    0.8576387404    0.5058078491
H        1.0900990021    1.6471527788    1.8229021084
H       -1.7327753095    1.5724697079    0.4780753234
H       -1.3764574716    1.1324569438    2.1646952988
H       -2.1913200907   -0.0296627020    1.0978790750
H        0.2014646334   -0.6273475771    1.3783969129
18   

C       -0.8398098099   -1.3706223320   -1.3092607874
C       -0.2381922569   -0.2587590809   -0.8086617955
C       -0.3285775671   -2.7972180965   -1.2894481677
C        1.0277175224    1.2026438948    0.7795798133
C       -1.4250354200    0.7622594250    1.1295401037
C       -0.0988465488    0.1768490060    0.6409115911
H       -1.4023579091   -1.1781839536   -2.2167620070
H       -0.2282028821    0.5852765372   -1.4905396266
H       -0.2832776478   -3.1978889880   -2.3064987666
H       -0.9959209216   -3.4245203056   -0.6914250507
H        0.6739565310   -2.8344546571   -0.8525447618
H        0.8187447374    2.0930722674    0.1782323102
H        1.9744525459    0.7671060911    0.4445926390
H        1.1388392369    1.5042733163    1.8259207373
H       -1.7024595968    1.6362286322    0.5313266542
H       -1.3436296037    1.0658135251    2.1779017294
H       -2.2209410757    0.0154743440    1.0466917812
H        0.1469790791   -0.6990543573    1.2508220926
18   

C       -0.8242707866   -1.3267154368   -1.4061564564
C       -0.3063203137   -0.1906083648   -0.8872719649
C       -0.3033438095   -2.7334403086   -1.2091878921
C        1.0328498299    1.1354280444    0.7500781195
C       -1.4263912413    0.7577414784    1.1217401261
C       -0.1291516213    0.1556099950    0.5789616335
H       -1.3230762915   -1.1957681982   -2.3605944693
H       -0.3611235971    0.6788408718   -1.5341141174
H       -0.1634689616   -3.2232991763   -2.1773881104
H       -1.0159012608   -3.3158575259   -0.6179010619
H        0.6567397466   -2.7143988455   -0.6844444957
H        0.8425589831    2.0628983092    0.2007331122
H        1.9585743371    0.6885223545    0.3739161287
H        1.1723249894    1.3767556815    1.8086028295
H       -1.6828056210    1.6727097866    0.5779710933
H       -1.3185334414    0.9989300467    2.1838410369
H       -2.2486211912    0.0437245945    1.0112135368
H        0.0958480390   -0.7590709561    1.1378455168
18   

C       -0.7716014029   -1.2839270259   -1.4816174882
C       -0.3574211586   -0.1310372482   -0.9214606145
C       -0.2866689025   -2.6744479848   -1.1472949851
C        1.0373605970    1.0982523496    0.7371036176
C       -1.4214167840    0.7573098639    1.1397823816
C       -0.1473685130    0.1490367118    0.5511803067
H       -1.1940091313   -1.1882292616   -2.4762214767
H       -0.4549397882    0.7542318363   -1.5411890933
H       -0.0750063575   -3.2298146197   -2.0658133705
H       -1.0526480315   -3.2104149315   -0.5792714966
H        0.6287940448   -2.6286686834   -0.5496670624
H        0.8556441544    2.0497873950    0.2273869649
H        1.9465467887    0.6482589426    0.3259242042
H        1.2015566522    1.2956791117    1.8011622092
H       -1.6667871805    1.6985778660    0.6374126239
H       -1.2905177349    0.9533260552    2.2085916077
H       -2.2608098254    0.0658287052    1.0155567930
H        0.0672699526   -0.7893264756    1.0732703015
18   

C       -0.6957058745   -1.2545540246   -1.5481569768
C       -0.3985501179   -0.0926264753   -0.9421290880
C       -0.2818812106   -2.6388601118   -1.1160452258
C        1.0400279491    1.0735050077    0.7185946233
C       -1.4155838900    0.7589260036    1.1545459947
C       -0.1608490008    0.1450796108    0.5314880430
H       -1.0368483430   -1.1753243677   -2.5748638129
H       -0.5266458016    0.8015208675   -1.5432334506
H       -0.0296696270   -3.2447525490   -1.9913463258
H       -1.1016426630   -3.1227123556   -0.5770149532
H        0.5948712838   -2.5944965309   -0.4631645515
H        0.8627361412    2.0390237045    0.2341772246
H        1.9356463394    0.6211468142    0.2810783357
H        1.2252825715    1.2438930682    1.7838586025
H       -1.6543682488    1.7155816684    0.6788117303
H       -1.2647818061    0.9271374248    2.2254935456
H       -2.2673631012    0.0832237408    1.0276644400
H        0.0480359396   -0.8059931298    1.0316904627
18   

C       -0.5900324873   -1.2463418167   -1.5965821440
C       -0.4226517702   -0.0827362683   -0.9494858760
C       -0.2687673155   -2.6311484366   -1.0975558449
C        1.0396530709    1.0530855513    0.7066730128
C       -1.4137737514    0.7562440299    1.1628981630
C       -0.1706695892    0.1362481441    0.5230093098
H       -0.8425616745   -1.1729406593   -2.6490120786
H       -0.5715245376    0.8144498108   -1.5411896704
H        0.0079664459   -3.2760403230   -1.9368129587
H       -1.1417619730   -3.0603019832   -0.5971513388
H        0.5686038499   -2.6059092652   -0.3942192988
H        0.8653817814    2.0244525117    0.2329026918
H        1.9271168324    0.5977281549    0.2558414706
H        1.2369885413    1.2121639535    1.7715014939
H       -1.6482221085    1.7193524600    0.6981960851
H       -1.2515693670    0.9132000066    2.2339144992
H       -2.2727732795    0.0893597951    1.0379957097
H        0.0345875583   -0.8194517225    1.0151237622
18   

C       -0.4899752133   -1.2410624136   -1.6235686469
C       -0.4686914656   -0.0836955233   -0.9457924111
C       -0.2452080909   -2.6283210756   -1.0908728950
C        1.0446049780    1.0161206572    0.6848772018
C       -1.4109637671    0.7988750159    1.1721118406
C       -0.1955519680    0.1359829100    0.5220895366
H       -0.6660550710   -1.1678931494   -2.6914646910
H       -0.6605948771    0.8102917695   -1.5298928472
H        0.0513921975   -3.2949172675   -1.9060008968
H       -1.1576824003   -3.0193160290   -0.6312961608
H        0.5552584649   -2.6216056450   -0.3455269884
H        0.8942395614    1.9888513025    0.2056364151
H        1.9122913016    0.5307825198    0.2269248761
H        1.2592907066    1.1770640427    1.7460413036
H       -1.6207797186    1.7662546086    0.7046192519
H       -1.2314459261    0.9564206728    2.2403008865
H       -2.2916761775    0.1582979562    1.0613570439
H       -0.0146402012   -0.8220280227    1.0190473236
18   

C       -0.3891869077   -1.2267656651   -1.6375780312
C       -0.5150830585   -0.0925639795   -0.9315600263
C       -0.2229356395   -2.6270428803   -1.1070041521
C        1.0297130286    1.0018697576    0.6697518754
C       -1.4187251450    0.8057081462    1.2010083271
C       -0.2200658862    0.1310665964    0.5322191222
H       -0.5786412396   -1.1472167179   -2.7027289632
H       -0.7792681557    0.7929195999   -1.5001938624
H        0.8398630318   -2.8614274737   -0.9964598739
H       -0.6712523942   -3.3450355457   -1.8000540466
H       -0.7146738835   -2.7352920058   -0.1359296524
H        0.8789270205    1.9732910634    0.1879882905
H        1.8856220829    0.5074001441    0.1995020286
H        1.2637803659    1.1662817250    1.7262567674
H       -1.6289399086    1.7733604083    0.7342735377
H       -1.2191771761    0.9652348050    2.2653573442
H       -2.3062177468    0.1717745256    1.1078612740
H       -0.0338124030   -0.8264396627    1.0283650565
18   

C       -0.2734334290   -1.2126172925   -1.6336765573
C       -0.5320326296   -0.1064674966   -0.9158979747
C       -0.2165930404   -2.6327442386   -1.1294115171
C        1.0277168589    1.0045583130    0.6615520870
C       -1.4183364727    0.8261748178    1.2129552602
C       -0.2273031490    0.1382352143    0.5441752150
H       -0.3740341861   -1.1093790992   -2.7088527350
H       -0.8179743708    0.7717030742   -1.4853610545
H        0.8233869242   -2.9294979525   -0.9649293708
H       -0.6640614266   -3.3091448746   -1.8636611814
H       -0.7669172770   -2.7317652498   -0.1890635395
H        0.8778816414    1.9700754850    0.1677331767
H        1.8780383781    0.4999886641    0.1919106383
H        1.2698767668    1.1821425116    1.7140669033
H       -1.6287570406    1.7882778760    0.7350432965
H       -1.2099008016    0.9990793693    2.2735198738
H       -2.3086723591    0.1941539529    1.1352869088
H       -0.0421410142   -0.8151358613    1.0493220429
18   

C       -0.1737253589   -1.2243199836   -1.6025073864
C       -0.5539136276   -0.1512097665   -0.8825300680
C       -0.2174370671   -2.6679401607   -1.1614523643
C        1.0276341678    1.0035199213    0.6456306944
C       -1.4135694168    0.8516695293    1.2299633226
C       -0.2326901867    0.1402981050    0.5676674776
H       -0.1917461095   -1.0881318523   -2.6785889314
H       -0.8729214503    0.7116804614   -1.4577944323
H        0.7950446083   -3.0249776248   -0.9515943467
H       -0.6545136136   -3.2886991428   -1.9491906071
H       -0.8241930003   -2.7751222014   -0.2571921460
H        0.8764813885    1.9541750955    0.1241184402
H        1.8708051213    0.4812093873    0.1825828324
H        1.2816327910    1.2120995563    1.6896083322
H       -1.6270168840    1.7999255184    0.7264738642
H       -1.1917465708    1.0550753442    2.2823791437
H       -2.3065175607    0.2203893087    1.1818904980
H       -0.0467658553   -0.8008620318    1.0957042697
18   

C       -0.0890115614   -1.2532810312   -1.5547133740
C       -0.5755706038   -0.2180918761   -0.8336746799
C       -0.2148024113   -2.7250021474   -1.2272229640
C        1.0251287273    1.0041933422    0.6270910146
C       -1.4116378067    0.8894993250    1.2416320164
C       -0.2397579753    0.1443339528    0.6005408683
H       -0.0293560270   -1.0663439618   -2.6216725019
H       -0.9405417921    0.6200559455   -1.4181867891
H        0.7672267437   -3.1369177633   -0.9771983331
H       -0.6186094851   -3.2696992457   -2.0858167355
H       -0.8846978816   -2.8697715163   -0.3741341453
H        0.8731197258    1.9295654754    0.0621310353
H        1.8623590033    0.4570235352    0.1824012408
H        1.2887237698    1.2612267675    1.6577777020
H       -1.6279217943    1.8142602797    0.6973618211
H       -1.1780071600    1.1404788648    2.2811477213
H       -2.3066950710    0.2594402680    1.2323323531
H       -0.0536252064   -0.7741579961    1.1674133554
18   

C       -0.0294133087   -1.2896162290   -1.4729457694
C       -0.5939350248   -0.2949262756   -0.7376291920
C       -0.2105651799   -2.7858309377   -1.3134086143
C        1.0260289589    1.0086679801    0.6349817626
C       -1.4085595824    0.9575454312    1.2694680043
C       -0.2474527274    0.1617628789    0.6701420109
H        0.0940569440   -1.0283535642   -2.5186743543
H       -1.0260136830    0.5045386735   -1.3306023087
H        0.7417894779   -3.2501610560   -1.0415538530
H       -0.5647300359   -3.2268468347   -2.2499199069
H       -0.9417189017   -2.9973216365   -0.5272587017
H        0.8799772055    1.8957431094    0.0101519619
H        1.8563618853    0.4253947115    0.2246682968
H        1.2963142734    1.3313974449    1.6452419470
H       -1.6208109472    1.8475393724    0.6686258680
H       -1.1655291388    1.2726211669    2.2891842181
H       -2.3089891937    0.3362078766    1.3066560058
H       -0.0679961976   -0.7207079751    1.2935746910
18   

C        0.0143144971   -1.3486016048   -1.3833532669
C       -0.6022865280   -0.3901021141   -0.6262870756
C       -0.2004080878   -2.8519935571   -1.4136350292
C        1.0344526291    1.0019113426    0.6419995187
C       -1.3995981373    1.0317920499    1.2814278992
C       -0.2497384599    0.1769162750    0.7436842311
H        0.1952320181   -1.0034703221   -2.3959367674
H       -1.1374844375    0.3407826019   -1.2236170931
H        0.7253147317   -3.3668068119   -1.1409072871
H       -0.5022172733   -3.1732780031   -2.4149807651
H       -0.9826097039   -3.1359127904   -0.7032521447
H        0.8991593533    1.8369513903   -0.0530593206
H        1.8578677831    0.3774382981    0.2815269066
H        1.3081511611    1.4025288909    1.6230264110
H       -1.6026185641    1.8753247879    0.6140684988
H       -1.1500063368    1.4219623555    2.2731952400
H       -2.3074379172    0.4263977840    1.3685650425
H       -0.0820405428   -0.6558701127    1.4349416727
