10   
Generated by ForceBalance from scan.xyz: Frame 1 of 24
C        2.2050241434   -1.2877291415   -0.1543970208
C        3.5538987030   -0.6117517952    0.0293750651
O        1.1604098009   -0.3339887829   -0.3204881177
O        3.4502328388    0.1885641170    1.2190644093
H        2.2191367066   -1.9057032539   -1.0566696243
H        2.0068692807   -1.9410539391    0.7083959570
H        3.7710528404    0.0185302069   -0.8435116570
H        4.3460104984   -1.3675022462    0.1323669642
H        1.2513603462    0.2940932716    0.4160265006
H        4.1910984562    0.8119486356    1.2439109152
10   
Generated by ForceBalance from scan.xyz: Frame 2 of 24
C        2.2055789644   -1.2808680336   -0.1600856153
C        3.5663647426   -0.6336718571    0.0446461290
O        1.1811658374   -0.3028170720   -0.3057922691
O        3.4797652335    0.1518785457    1.2475195901
H        2.2111477850   -1.8784845957   -1.0761770571
H        1.9910870106   -1.9509218360    0.6859664988
H        3.7996049664    0.0037718996   -0.8177846218
H        4.3463482510   -1.4019236595    0.1417745300
H        1.2761757629    0.2943843507    0.4557019272
H        4.0817958567    0.9062413993    1.1745517228
10   
Generated by ForceBalance from scan.xyz: Frame 3 of 24
C        2.2092915538   -1.2740797511   -0.1650558838
C        3.5824841090   -0.6558954337    0.0540192084
O        1.2035929884   -0.2738272002   -0.2908372879
O        3.5243454111    0.1229457509    1.2648486446
H        2.2033365292   -1.8534373359   -1.0930073252
H        1.9804667193   -1.9568935191    0.6668334376
H        3.8371030995   -0.0201847846   -0.8026026024
H        4.3456947809   -1.4394298573    0.1517456535
H        1.2902939566    0.2855227580    0.4997698986
H        3.9536658910    0.9758289844    1.1110456250
10   
Generated by ForceBalance from scan.xyz: Frame 4 of 24
C        2.2158593230   -1.2626403890   -0.1682213783
C        3.6029358211   -0.6757003168    0.0557920413
O        1.2279982770   -0.2408152339   -0.2751522488
O        3.5876321651    0.1026511621    1.2684969496
H        2.1937463550   -1.8262485604   -1.1057955965
H        1.9747650012   -1.9536606498    0.6529600624
H        3.8828378197   -0.0521709095   -0.8013378059
H        4.3440715304   -1.4778570718    0.1602942963
H        1.2858959083    0.2698086141    0.5498055789
H        3.8212292659    1.0163609157    1.0556928430
10   
Generated by ForceBalance from scan.xyz: Frame 5 of 24
C        2.2244700541   -1.2456889340   -0.1703905807
C        3.6249280838   -0.6886132887    0.0548508841
O        1.2534854311   -0.2040638383   -0.2664180342
O        3.6538770027    0.0969681186    1.2606218116
H        2.1876615762   -1.7981206014   -1.1143181720
H        1.9702632977   -1.9398201841    0.6435513165
H        3.9315980512   -0.0855332968   -0.8080193217
H        4.3416570175   -1.5091644637    0.1743801519
H        1.2576150437    0.2487825916    0.5927354546
H        3.6778043704    1.0324376676    1.0160321328
10   
Generated by ForceBalance from scan.xyz: Frame 6 of 24
C        2.2364918654   -1.2242646370   -0.1685201463
C        3.6511838145   -0.6987566010    0.0495933572
O        1.2859102067   -0.1598627471   -0.2622354510
O        3.7249623069    0.1001187908    1.2405439366
H        2.1828966231   -1.7736336184   -1.1135978615
H        1.9680298956   -1.9128092067    0.6446506658
H        3.9774498412   -0.1212962374   -0.8245434874
H        4.3436660274   -1.5363767665    0.1850704692
H        1.2000449730    0.2173252415    0.6274989333
H        3.5366197987    1.0175547973    0.9947105648
10   
Generated by ForceBalance from scan.xyz: Frame 7 of 24
C        2.3089641637   -1.1882626566   -0.0186898331
C        3.6988409342   -0.5794226419   -0.0798885975
O        1.3755508008   -0.0999271600    0.0522229276
O        4.0479885427    0.0743274394    1.1389263154
H        2.1299149138   -1.8012664687   -0.9153513666
H        2.2353036673   -1.8280940969    0.8708628900
H        3.7621442832    0.1068422651   -0.9358125244
H        4.4359716891   -1.3747166591   -0.2265364720
H        0.5038969182   -0.4502822074    0.2882054525
H        3.5564820340    0.9098331670    1.1656772182
10   
Generated by ForceBalance from scan.xyz: Frame 8 of 24
C        2.3222414634   -1.1801108437   -0.0189822934
C        3.7180215155   -0.5848737736   -0.0928721404
O        1.4098257168   -0.0747176492    0.0822979828
O        4.0527606609    0.1225749672    1.0978175547
H        2.1181727990   -1.7766422966   -0.9205761639
H        2.2481321454   -1.8287245954    0.8641988476
H        3.7893246343    0.0675430939   -0.9754245556
H        4.4553211943   -1.3857650705   -0.1987022751
H        0.5358580395   -0.4108126254    0.3301261189
H        3.3945290695    0.8309827724    1.1897900572
10   
Generated by ForceBalance from scan.xyz: Frame 9 of 24
C        2.3350627289   -1.1691101799   -0.0202384167
C        3.7379152845   -0.5903852737   -0.1092896452
O        1.4412703190   -0.0507109684    0.1085192852
O        4.0601931635    0.1812994428    1.0434936356
H        2.1090005264   -1.7522972123   -0.9244675252
H        2.2599557323   -1.8254452220    0.8575287779
H        3.8178854282    0.0199717221   -1.0213772756
H        4.4709868655   -1.3997891765   -0.1719795881
H        0.5649087456   -0.3764198882    0.3618318330
H        3.2822828013    0.7378596327    1.2192740375
10   
Generated by ForceBalance from scan.xyz: Frame 10 of 24
C        2.3413221890   -1.1599263289   -0.0248442304
C        3.7468801620   -0.5875202883   -0.1276537699
O        1.4499508168   -0.0423502523    0.1210376180
O        4.0594754248    0.2534598812    0.9788279469
H        2.1069930194   -1.7391309446   -0.9289422935
H        2.2690654350   -1.8214324411    0.8500931743
H        3.8333557855   -0.0220371581   -1.0674658088
H        4.4768731394   -1.4029332128   -0.1490642819
H        0.5698698434   -0.3727013138    0.3551658221
H        3.2182102618    0.6461758122    1.2680932669
10   
Generated by ForceBalance from scan.xyz: Frame 11 of 24
C        2.3431188613   -1.1457692513   -0.0200868922
C        3.7486897040   -0.5761402946   -0.1406191144
O        1.4439855580   -0.0365706816    0.1246978401
O        4.0641616311    0.3254811937    0.9179487049
H        2.1094027538   -1.7364619981   -0.9168891549
H        2.2780483839   -1.8033556331    0.8595751477
H        3.8385210875   -0.0488560813   -1.1008652279
H        4.4734567463   -1.3983677224   -0.1317620990
H        0.5592538384   -0.3784672316    0.3225700588
H        3.2276065350    0.5600739940    1.3517160972
10   
Generated by ForceBalance from scan.xyz: Frame 12 of 24
C        2.3366360514   -1.1299811180   -0.0089517857
C        3.7392569758   -0.5614161880   -0.1528091511
O        1.4202761053   -0.0334913689    0.0899067172
O        4.0775379610    0.3717162561    0.8723351080
H        2.1166260464   -1.7627528291   -0.8808570591
H        2.2781554841   -1.7577776128    0.8943380442
H        3.8214130862   -0.0489782630   -1.1198932528
H        4.4569264474   -1.3922763130   -0.1430547891
H        0.5305871244   -0.3886760297    0.2360322040
H        3.3178677426    0.4533909212    1.4689984847
10   
Generated by ForceBalance from scan.xyz: Frame 13 of 24
C        2.2970558503   -1.2639635167   -0.0406910601
C        3.6146660771   -0.5211519197   -0.1838701529
O        1.1538070002   -0.4135682617   -0.1615822072
O        3.8743693367    0.3749121147    0.9107925596
H        2.2073575441   -2.0128595644   -0.8329960210
H        2.2807443608   -1.7978240136    0.9248921474
H        3.6134682585    0.0773253224   -1.1006594627
H        4.4318018167   -1.2530041869   -0.2469295195
H        1.3564496913    0.4328347073    0.2684185297
H        3.2774080280    0.1627301562    1.6449212035
10   
Generated by ForceBalance from scan.xyz: Frame 14 of 24
C        2.2994011998   -1.2659758816   -0.0433943767
C        3.6159712498   -0.5178349165   -0.1743897565
O        1.1640048971   -0.4080563488   -0.1589064132
O        3.8117983581    0.4268695172    0.8911028730
H        2.2132708008   -2.0109073511   -0.8402850479
H        2.2793268703   -1.8062331865    0.9192890202
H        3.6386030917    0.0575969476   -1.1041467762
H        4.4440381194   -1.2412709834   -0.1900562532
H        1.3863823131    0.4334196807    0.2726902740
H        3.3623335545    0.0956206329    1.6851799948
10   
Generated by ForceBalance from scan.xyz: Frame 15 of 24
C        2.2908898164   -1.2671889457   -0.0525808894
C        3.6070191149   -0.5125074694   -0.1656309934
O        1.1631307655   -0.4045362740   -0.1778467216
O        3.7408269645    0.4745014745    0.8697380502
H        2.2143104060   -2.0104059135   -0.8523604543
H        2.2601805162   -1.8097604846    0.9088988680
H        3.6521332216    0.0399155354   -1.1075510512
H        4.4466689175   -1.2223390995   -0.1339153996
H        1.3840805784    0.4207592215    0.2861151134
H        3.4726437281    0.0693622774    1.7109192858
10   
Generated by ForceBalance from scan.xyz: Frame 16 of 24
C        2.2778305429   -1.2708193434   -0.0655013438
C        3.5945679875   -0.5104976975   -0.1522813976
O        1.1582732435   -0.4024014576   -0.2040169003
O        3.6718143196    0.5071827317    0.8591389682
H        2.2141261731   -2.0080804558   -0.8721674700
H        2.2303936773   -1.8188723939    0.8919499584
H        3.6621420806    0.0229395901   -1.1034850298
H        4.4433100565   -1.2056217789   -0.0781049853
H        1.3688363331    0.4021028536    0.3006653166
H        3.6055126802    0.0751931677    1.7265906615
10   
Generated by ForceBalance from scan.xyz: Frame 17 of 24
C        2.2637660872   -1.2747286173   -0.0782620027
C        3.5820407539   -0.5116029260   -0.1334566825
O        1.1525884273   -0.3994672187   -0.2304805499
O        3.6110314354    0.5240499628    0.8639179393
H        2.2140093466   -2.0023043089   -0.8948437469
H        2.1960933608   -1.8311910841    0.8724577448
H        3.6726231296    0.0075527899   -1.0909256646
H        4.4349584210   -1.1955962772   -0.0238091338
H        1.3442756781    0.3802943846    0.3191175916
H        3.7536405305    0.1090001907    1.7294190226
10   
Generated by ForceBalance from scan.xyz: Frame 18 of 24
C        2.2501073250   -1.2776942469   -0.0920860110
C        3.5690817225   -0.5131678770   -0.1131223631
O        1.1452108109   -0.3972812362   -0.2580613134
O        3.5548902643    0.5267725890    0.8828793143
H        2.2153688182   -1.9941657042   -0.9192643659
H        2.1620170079   -1.8429774434    0.8508056000
H        3.6848105152   -0.0027549854   -1.0733060337
H        4.4206567776   -1.1920102246    0.0261076723
H        1.3091371981    0.3551699073    0.3367433874
H        3.9006158439    0.1660333320    1.7130199809
10   
Generated by ForceBalance from scan.xyz: Frame 19 of 24
C        2.2387167848   -1.2804149311   -0.1062546616
C        3.5584517208   -0.5181273397   -0.0921208202
O        1.1386868840   -0.3954132837   -0.2835065989
O        3.5068107185    0.5099707113    0.9173409292
H        2.2182780005   -1.9845660789   -0.9443786089
H        2.1316548425   -1.8554205273    0.8277572746
H        3.7012030586   -0.0083998276   -1.0501332088
H        4.4023668858   -1.2006048581    0.0690926618
H        1.2707534344    0.3291132742    0.3521395382
H        4.0372304272    0.2342536454    1.6780570501
10   
Generated by ForceBalance from scan.xyz: Frame 20 of 24
C        2.2304320850   -1.2827338853   -0.1206088629
C        3.5511321604   -0.5259321131   -0.0742970011
O        1.1332428803   -0.3943049754   -0.3043950514
O        3.4698946854    0.4756563610    0.9601881263
H        2.2222158924   -1.9740954071   -0.9693521014
H        2.1085090850   -1.8679906189    0.8042250909
H        3.7204336366   -0.0097154780   -1.0258976325
H        4.3824228662   -1.2203468856    0.1002819520
H        1.2374493730    0.3072627991    0.3609883619
H        4.1564150155    0.3126604310    1.6208605095
10   
Generated by ForceBalance from scan.xyz: Frame 21 of 24
C        2.2226268353   -1.2829967275   -0.1305532471
C        3.5449663540   -0.5342388955   -0.0519586408
O        1.1287037111   -0.3904590916   -0.3188606867
O        3.4401747504    0.4301499701    1.0138514790
H        2.2258806812   -1.9607165425   -0.9899515544
H        2.0868995813   -1.8802857131    0.7838643496
H        3.7369874997   -0.0034586374   -0.9925669641
H        4.3634137012   -1.2435243249    0.1266555357
H        1.2090992338    0.2909515848    0.3698506584
H        4.2419885351    0.4044316769    1.5531505714
10   
Generated by ForceBalance from scan.xyz: Frame 22 of 24
C        2.2160791272   -1.2840167426   -0.1377253576
C        3.5414164601   -0.5466046984   -0.0291353320
O        1.1278608486   -0.3842618944   -0.3282196847
O        3.4234367178    0.3716779384    1.0727085717
H        2.2290395239   -1.9479057759   -1.0073930060
H        2.0662210587   -1.8942945047    0.7653312005
H        3.7468243021    0.0070865108   -0.9548929272
H        4.3501692582   -1.2705688786    0.1396515883
H        1.1958174996    0.2840307487    0.3741967098
H        4.2925098041    0.5020811161    1.4769839773
10   
Generated by ForceBalance from scan.xyz: Frame 23 of 24
C        2.2084742187   -1.2833648336   -0.1435070926
C        3.5384939372   -0.5611801009   -0.0059287404
O        1.1304394805   -0.3722007864   -0.3386336023
O        3.4190822102    0.3055998604    1.1344156318
H        2.2296710385   -1.9368626774   -1.0204945554
H        2.0412156780   -1.9037114052    0.7494108946
H        3.7461194913    0.0253371535   -0.9115312643
H        4.3426836367   -1.2971572976    0.1361394776
H        1.1927325300    0.2858034335    0.3738055474
H        4.3008214762    0.6033000236    1.4014103843
10   
Generated by ForceBalance from scan.xyz: Frame 24 of 24
C        2.2052241935   -1.2853916662   -0.1497583346
C        3.5433118768   -0.5840494269    0.0133621003
O        1.1420038236   -0.3552855060   -0.3342039516
O        3.4272141526    0.2440198874    1.1817657177
H        2.2260403233   -1.9221696229   -1.0387572580
H        2.0224863312   -1.9219398331    0.7286998064
H        3.7550282707    0.0278596979   -0.8743718256
H        4.3423701576   -1.3299784639    0.1343214054
H        1.2164587576    0.2910911870    0.3878464283
H        4.2642011577    0.7111783008    1.3216629024
