14   

C       -0.3065418777    0.8554452821   -2.0520908307
C       -0.4546071975   -0.1050800792   -0.9694483587
C       -1.0805969572    0.5379220698   -3.1382620524
C       -1.3506898695   -1.1149877132   -1.2687436784
C       -1.7304182729   -2.2922533309   -0.4666153984
C       -1.3075251677   -2.3876740173    0.9916123029
O       -2.3294401386   -3.2374974564   -0.9720184232
S       -2.0200037330   -0.9296850706   -2.8906921313
H        0.3465367655    1.7205703697   -2.0057611846
H        0.0920380581   -0.0322575641   -0.0351020223
H       -1.1170695212    1.1170169978   -4.0534647697
H       -1.7454318864   -1.5604185965    1.5561696672
H       -0.2181807676   -2.3424600846    1.0665301054
H       -1.6537872391   -3.3325630893    1.4199501306
14   

C       -0.2946146764    0.8543354045   -2.0632366869
C       -0.3905704092   -0.1379795954   -1.0036018180
C       -1.1700097960    0.6058752466   -3.0889428602
C       -1.3587959404   -1.0927946966   -1.2525436759
C       -1.6833273090   -2.3078098064   -0.4759223624
C       -1.3076734162   -2.3896238935    0.9961750468
O       -2.1351530253   -3.3085596990   -1.0232198911
S       -2.1483104728   -0.8300432953   -2.8075575770
H        0.3984979109    1.6888568094   -2.0469810608
H        0.2475000592   -0.1298686806   -0.1262533539
H       -1.2565903152    1.2162464423   -3.9801345937
H       -1.8727268686   -1.6425999892    1.5597354574
H       -0.2379119399   -2.2061642344    1.1215345938
H       -1.5443501486   -3.3831304193    1.3874688823
14   

C       -0.2472500776    0.8028544733   -2.0890824730
C       -0.3015569375   -0.2145016959   -1.0503401806
C       -1.2328573948    0.6398536769   -3.0285810487
C       -1.3545341552   -1.0924862340   -1.2209316686
C       -1.6491226625   -2.3311886240   -0.4580830067
C       -1.3278701830   -2.4003523831    1.0281803647
O       -1.9728501424   -3.3657276587   -1.0291846102
S       -2.2696669982   -0.7407641035   -2.6857324210
H        0.4977547584    1.5908389391   -2.1228164435
H        0.4284739097   -0.2814418320   -0.2508321025
H       -1.3654325910    1.2803265914   -3.8925753028
H       -2.0969437459   -1.8640202729    1.5901477974
H       -0.3540911955   -1.9502027331    1.2323121524
H       -1.3089760203   -3.4428385466    1.3582059828
14   

C       -0.2100581977    0.7893804546   -2.1149993710
C       -0.2200324475   -0.2596222585   -1.1067707268
C       -1.2786484727    0.6981937333   -2.9701733073
C       -1.3235462433   -1.0812301735   -1.2088630145
C       -1.5776250923   -2.3475233285   -0.4612913751
C       -1.3629723475   -2.3849655474    1.0448145558
O       -1.7322831720   -3.4089119416   -1.0488497906
S       -2.3422045829   -0.6494008997   -2.5794848895
H        0.5642090914    1.5456141198   -2.1904713275
H        0.5749159812   -0.3935491942   -0.3806581065
H       -1.4554126698    1.3714438530   -3.8006887426
H       -2.2712228496   -2.0418182255    1.5470163935
H       -0.5321625328   -1.7361104492    1.3307283522
H       -1.1418487401   -3.4064206737    1.3665782194
14   

C       -0.6219401960    0.8800546690   -2.0639342787
C       -1.1450669118   -0.0649323251   -1.0889284289
C       -0.4755853486    0.3165193681   -3.3061678680
C       -1.4151212492   -1.2964541590   -1.6403818861
C       -1.8168223781   -2.5434715178   -0.9060892980
C       -3.1130386445   -2.5508041359   -0.1111177288
O       -1.0245455112   -3.4563687255   -0.7369375789
S       -0.9754482083   -1.3714154644   -3.3435786748
H       -0.3631517170    1.9071574401   -1.8291030240
H       -1.2771955925    0.1702088598   -0.0378255362
H       -0.0907775625    0.8407872406   -4.1729720211
H       -3.9398219164   -2.8261302501   -0.7710032945
H       -3.3060755890   -1.5595497291    0.3062204882
H       -3.0494894507   -3.2758784666    0.7049037172
14   

C       -0.4983587609    0.8467285081   -2.0643722772
C       -0.9173150948   -0.0855629361   -1.0284651517
C       -0.5621049258    0.2927325919   -3.3180270843
C       -1.2879360180   -1.3051362919   -1.5376537288
C       -1.7648391147   -2.5112642233   -0.7692471844
C       -3.2429105003   -2.6513965967   -0.4462152433
O       -0.9797236160   -3.3504274001   -0.3625347335
S       -1.1304495928   -1.3735893168   -3.2894570570
H       -0.1687176174    1.8608435982   -1.8643969239
H       -0.9267172656    0.1539079552    0.0300369604
H       -0.2907172412    0.8124331116   -4.2294040377
H       -3.8078220755   -2.7936902027   -1.3710016310
H       -3.5978313877   -1.7472788519    0.0549536132
H       -3.4046899982   -3.5117224726    0.2092559461
14   

C       -0.4076486851    0.8153501156   -2.0198481990
C       -0.7440421611   -0.0978614223   -0.9381253719
C       -0.6851207464    0.2832450826   -3.2532392643
C       -1.2369854488   -1.2979385216   -1.3913625990
C       -1.7865034570   -2.4130662445   -0.5485148739
C       -3.2534179745   -2.7944069041   -0.6762888897
O       -1.0475526772   -3.1403789562    0.0954182174
S       -1.3539669096   -1.3418513468   -3.1490884189
H        0.0114388398    1.8039469050   -1.8644081756
H       -0.6261350218    0.1430808066    0.1137090756
H       -0.5117781299    0.7962050688   -4.1919720658
H       -3.5480462713   -2.8230504180   -1.7279256316
H       -3.8664027159   -2.0557155216   -0.1534182518
H       -3.4253092559   -3.7787296787   -0.2319366290
14   

C       -0.3297919190    0.7853784404   -2.0242358688
C       -0.6382617849   -0.1261216702   -0.9330614708
C       -0.7584376767    0.3075160219   -3.2360617951
C       -1.2578311543   -1.2794122889   -1.3598061234
C       -1.8276026026   -2.3393563969   -0.4745410517
C       -3.2384270883   -2.8552834447   -0.7184024781
O       -1.1176405569   -2.9397640343    0.3196301895
S       -1.5395930349   -1.2641397033   -3.1005008849
H        0.1764275199    1.7354641751   -1.8893311676
H       -0.4155802789    0.0813283036    0.1091217432
H       -0.6319415202    0.8301549943   -4.1769369133
H       -3.3779080481   -3.1048178256   -1.7726687613
H       -3.9603613921   -2.0861498274   -0.4316947495
H       -3.4179387712   -3.7511268483   -0.1173123762
14   

C       -0.2647010492    0.7737388464   -2.0497159164
C       -0.5570472603   -0.1356684096   -0.9524829017
C       -0.8238301422    0.3581741192   -3.2309975879
C       -1.3000820959   -1.2283284570   -1.3470606837
C       -1.8651163358   -2.2571847922   -0.4338124941
C       -3.2149375923   -2.8929963172   -0.7337062185
O       -1.1824790589   -2.7286443510    0.4671185346
S       -1.7145037726   -1.1506403462   -3.0597689569
H        0.3240026711    1.6784257323   -1.9398272480
H       -0.2362347250    0.0278429233    0.0719939922
H       -0.7307530071    0.8911810615   -4.1699501587
H       -3.2312977074   -3.2895777886   -1.7515546015
H       -4.0030426300   -2.1434536346   -0.6237663612
H       -3.4053030023   -3.7116387358   -0.0339044238
14   

C       -0.2137574750    0.7509424393   -2.0810933713
C       -0.5107853899   -0.1501515131   -0.9782809578
C       -0.8788733957    0.4034070162   -3.2290949976
C       -1.3729220135   -1.1669913658   -1.3360935539
C       -1.9360842633   -2.1781790101   -0.4091852739
C       -3.2262288819   -2.9092160855   -0.7516566188
O       -1.3019172712   -2.5312447509    0.5789154469
S       -1.8816470873   -1.0284045074   -3.0194649482
H        0.4548296832    1.6013749142   -1.9983682344
H       -0.1073201368   -0.0367780017    0.0236814170
H       -0.8003303900    0.9431407308   -4.1655234321
H       -3.1513081654   -3.3661767783   -1.7413495133
H       -4.0607704703   -2.2032659529   -0.7391287812
H       -3.4160561056   -3.6949994728   -0.0150051975
14   

C       -0.1762592777    0.7332293593   -2.1015453800
C       -0.4698753351   -0.1626618289   -0.9935717124
C       -0.9431257838    0.4622516847   -3.2060017545
C       -1.4424016995   -1.0931795458   -1.3023089839
C       -1.9927736353   -2.1044403436   -0.3714735702
C       -3.2306189080   -2.9085831424   -0.7412622277
O       -1.4132207524   -2.3549658378    0.6803912698
S       -2.0445311045   -0.8868226161   -2.9474878209
H        0.5642080191    1.5247328036   -2.0534984035
H        0.0166160382   -0.1090447725   -0.0239214898
H       -0.8834506794    1.0116447404   -4.1381938850
H       -3.0722464956   -3.4250570471   -1.6912818063
H       -4.0907967262   -2.2398100114   -0.8292165603
H       -3.4374013856   -3.6518371339    0.0339550856
14   

C       -0.1398066448    0.6900776736   -2.1089646501
C       -0.4399870213   -0.2006549647   -0.9985703237
C       -0.9905634764    0.5043688076   -3.1687924695
C       -1.5113528857   -1.0332458531   -1.2567245076
C       -2.0595452104   -2.0468075813   -0.3281696986
C       -3.2471366325   -2.9084360085   -0.7313763290
O       -1.5579644205   -2.2042578899    0.7805844471
S       -2.1843065529   -0.7532483100   -2.8630562711
H        0.6659967040    1.4164068209   -2.0948130712
H        0.1140036077   -0.2147924121   -0.0643690159
H       -0.9405863320    1.0649885760   -4.0948497262
H       -3.0058454680   -3.4743285086   -1.6348291789
H       -4.1173844594   -2.2745641239   -0.9200967914
H       -3.4878393037   -3.6106361027    0.0718238872
14   

C       -0.1157399357    0.6562634948   -2.1057691031
C       -0.4080271488   -0.2373615760   -0.9956183574
C       -1.0562116175    0.5735422613   -3.1007479871
C       -1.5708550505   -0.9584949081   -1.1821617379
C       -2.1055814874   -1.9836147615   -0.2573902270
C       -3.2543446053   -2.8878343648   -0.6798489157
O       -1.6743232407   -2.0663163370    0.8881755346
S       -2.3297515071   -0.5842793556   -2.7300224122
H        0.7497209873    1.3097013253   -2.1385483714
H        0.2182721680   -0.3350501640   -0.1135876831
H       -1.0268590733    1.1532991814   -4.0158413082
H       -2.9306772107   -3.5344018374   -1.4996612173
H       -4.1060049274   -2.2854362623   -1.0056131816
H       -3.5660432831   -3.5122484523    0.1622294903
14   

C       -0.0996297632    0.6145465240   -2.1190381997
C       -0.3999016519   -0.2788660712   -1.0108762343
C       -1.1011112003    0.6345095492   -3.0558675432
C       -1.6328272759   -0.8873203105   -1.1334554190
C       -2.1730206403   -1.9205873837   -0.2173056566
C       -3.2577897594   -2.8800510689   -0.6852782979
O       -1.8476585908   -1.9289745745    0.9647551831
S       -2.4445338659   -0.4199812526   -2.6283211720
H        0.8150985366    1.1932385029   -2.1930369714
H        0.2723406900   -0.4587692006   -0.1770354942
H       -1.0772193305    1.2311278668   -3.9602213975
H       -2.8484618823   -3.5525445354   -1.4436883839
H       -4.0987182869   -2.3246591142   -1.1074905729
H       -3.6180353183   -3.4753116670    0.1585410100
14   

C       -0.0774864107    0.5527855459   -2.1178010537
C       -0.3906852830   -0.3332301495   -1.0072601032
C       -1.1242380265    0.6746537256   -2.9954094924
C       -1.6771755629   -0.8264753962   -1.0631013315
C       -2.2433077816   -1.8538892055   -0.1488016513
C       -3.2382221172   -2.8812381370   -0.6692750987
O       -2.0537401969   -1.7811944517    1.0589874196
S       -2.5268027151   -0.2694956294   -2.5049957855
H        0.8778608775    1.0531296154   -2.2364314968
H        0.3122388593   -0.5907481714   -0.2206279312
H       -1.1004112118    1.2837222080   -3.8914336000
H       -2.7336901512   -3.5569562256   -1.3648787376
H       -4.0652645946   -2.3845421020   -1.1819722752
H       -3.6403039204   -3.4659597153    0.1629305837
14   

C       -0.0683469322    0.4832954902   -2.1269849051
C       -0.3906636079   -0.4092954432   -1.0242410757
C       -1.1523772232    0.7269994867   -2.9307939460
C       -1.7159660733   -0.7826698754   -1.0095420520
C       -2.3234443515   -1.7980050239   -0.0974803990
C       -3.2064668399   -2.8988723270   -0.6670429704
O       -2.2862138867   -1.6511708156    1.1159005964
S       -2.6009098845   -0.1053960495   -2.3762098939
H        0.9189032114    0.9012964146   -2.2935160631
H        0.3351752194   -0.7554830314   -0.2948023496
H       -1.1300028358    1.3618237206   -3.8088009530
H       -2.5872703046   -3.6120821127   -1.2173924766
H       -3.9561523399   -2.4779979378   -1.3408729906
H       -3.7173024382   -3.4254847790    0.1440038970
14   

C       -0.0589788541    0.4168979688   -2.1765494856
C       -0.3938758657   -0.4943642497   -1.0927200614
C       -1.1638043744    0.7964161193   -2.8953754444
C       -1.7418161475   -0.7495755374   -1.0120213468
C       -2.4115914334   -1.7288531260   -0.0910236035
C       -3.1377369314   -2.9302513041   -0.6766124890
O       -2.5471705920   -1.4862142054    1.0974299167
S       -2.6463464212    0.0722908011   -2.2814888374
H        0.9503124934    0.7527543545   -2.3902106008
H        0.3403665343   -0.9321334248   -0.4237226215
H       -1.1375784837    1.4690758102   -3.7446315831
H       -2.4050852913   -3.6764253380   -0.9948157211
H       -3.7374445964   -2.6282513923   -1.5384232546
H       -3.7951007017   -3.3747547662    0.0758376960
14   

C       -0.6052816236    1.0091775071   -2.0888249815
C       -1.1464987589    0.3438660674   -0.9131341308
C       -0.5009995752    0.1617972462   -3.1629388851
C       -1.4240385114   -0.9810423145   -1.1402192483
C       -2.0007126556   -1.9753138371   -0.1647514271
C       -1.0666035233   -2.7431403971    0.7553393041
O       -3.2050976050   -2.1360297022   -0.0667222928
S       -1.0528721370   -1.4682729404   -2.7903979126
H       -0.3229342078    2.0564798144   -2.1116275000
H       -1.3201672121    0.8423494694    0.0351357896
H       -0.1268001038    0.4543462868   -4.1369701227
H       -0.4168965961   -2.0439672362    1.2878853273
H       -0.4504951604   -3.4257187483    0.1644914672
H       -1.6451405371   -3.3198299747    1.4824512238
14   

C       -0.4871542556    0.9742211258   -2.0568033267
C       -0.9474172067    0.2149028808   -0.9040266189
C       -0.5328198339    0.2392090790   -3.2143030824
C       -1.2838391138   -1.0800864315   -1.2256654796
C       -1.9347339465   -2.0913443136   -0.3261043314
C       -1.2142315396   -2.5312457670    0.9386401612
O       -3.1124617685   -2.3836764894   -0.4572348947
S       -1.1222722465   -1.3987446137   -2.9496634001
H       -0.1610379848    2.0077519437   -2.0066104679
H       -1.0425169888    0.6359851333    0.0915697183
H       -0.2461585642    0.6164942737   -4.1888617538
H       -0.6272880236   -1.7045657568    1.3462121669
H       -0.5433352606   -3.3611342716    0.7019862748
H       -1.9386070532   -2.8592729233    1.6892018678
14   

C       -0.4234991320    0.9296278502   -2.0361253737
C       -0.8243100039    0.1375057862   -0.8833355230
C       -0.6092328273    0.2582292274   -3.2177554178
C       -1.2573627321   -1.1247078004   -1.2333179558
C       -1.8960043232   -2.1382527483   -0.3434972628
C       -1.2762760964   -2.4418399623    1.0128229831
O       -3.0198234132   -2.5627668352   -0.5726440856
S       -1.2616401501   -1.3595423106   -2.9790499205
H       -0.0383938639    1.9416012709   -1.9677226371
H       -0.8127898621    0.5184453193    0.1324751542
H       -0.3881075437    0.6699704409   -4.1954261059
H       -0.8262723941   -1.5427134241    1.4395227838
H       -0.5021963075   -3.2042706250    0.8929241818
H       -2.0412411348   -2.8152405695    1.6992620023
14   

C       -0.3897662320    0.8964937480   -2.0364351672
C       -0.7374800805    0.0719919908   -0.8891600050
C       -0.6982547370    0.2884813999   -3.2263109986
C       -1.2639674749   -1.1519888433   -1.2544037807
C       -1.8611434866   -2.1918134354   -0.3796199062
C       -1.3066647818   -2.4141911488    1.0204042656
O       -2.9082092892   -2.7510237967   -0.6832084283
S       -1.4082449968   -1.3068972720   -3.0042623850
H        0.0496704940    1.8852848334   -1.9572060001
H       -0.6173708051    0.4058994910    0.1358856890
H       -0.5325317846    0.7328923355   -4.2006326286
H       -1.1010101288   -1.4592230012    1.5085556822
H       -0.3808238532   -2.9917317778    0.9556040430
H       -2.0297514913   -2.9690346485    1.6248424894
14   

C       -0.3436590230    0.8790896432   -2.0286630281
C       -0.6420081041    0.0209014014   -0.8923394750
C       -0.8080610349    0.3586914989   -3.2092306057
C       -1.3014107853   -1.1379791521   -1.2575414775
C       -1.8598170092   -2.1968289221   -0.3906537969
C       -1.3224493695   -2.3826866906    1.0205372213
O       -2.8383137072   -2.8506162734   -0.7374369261
S       -1.6140575298   -1.1910152200   -2.9923719129
H        0.1774031461    1.8272795321   -1.9478778033
H       -0.3864551992    0.2817780978    0.1292306210
H       -0.7000398812    0.8402042094   -4.1739842459
H       -1.4110828070   -1.4492781121    1.5815312223
H       -0.2717786887   -2.6810179745    0.9755714441
H       -1.8905944119   -3.1615049490    1.5371009804
14   

C       -0.3115283459    0.8590296204   -2.0500534295
C       -0.5657069667   -0.0318939899   -0.9283241354
C       -0.8765373018    0.4042411831   -3.2135057711
C       -1.3066916913   -1.1437342377   -1.2849035480
C       -1.8115499548   -2.2397516592   -0.4379145525
C       -1.3208431357   -2.3805464112    0.9951791725
O       -2.6770608332   -3.0098379120   -0.8449375615
S       -1.7314762294   -1.1188775080   -2.9972358722
H        0.2557329823    1.7805533554   -1.9718957252
H       -0.2147697531    0.1694638678    0.0783660662
H       -0.8124286256    0.9173054803   -4.1658362831
H       -1.5464752058   -1.4704374816    1.5565355190
H       -0.2412364987   -2.5516612579    0.9988094098
H       -1.8163038051   -3.2274970019    1.4782685213
14   

C       -0.3066924295    0.8648430625   -2.0602561042
C       -0.5085707788   -0.0624512893   -0.9575424371
C       -0.9773836582    0.4801447530   -3.1923659410
C       -1.3294720944   -1.1237153871   -1.2930204723
C       -1.7724029326   -2.2610624425   -0.4683687259
C       -1.3152675048   -2.3771667167    0.9779159406
O       -2.5113566758   -3.1274156332   -0.9287933249
S       -1.8767144588   -1.0158055008   -2.9672974523
H        0.3050278130    1.7583412778   -1.9927381378
H       -0.0581449541    0.0739021526    0.0200627930
H       -0.9631961391    1.0275635016   -4.1274654286
H       -1.6493068578   -1.5027444490    1.5422325719
H       -0.2247665303   -2.4400411727    1.0167036100
H       -1.7394378899   -3.2768277400    1.4327451273
