24

C      1.71463   -1.03100   -0.14792
C      0.65896   -0.47391    0.57794
C      2.79876   -1.63084    1.92899
C      2.78677   -1.61406    0.52930
C      0.66748   -0.49383    1.97364
C      1.74641   -1.07908    2.66845
C      0.84796   -2.24672    4.77312
C      1.76435   -1.16631    4.17953
C      3.95733   -2.17657   -0.23988
C     -0.47728    0.12167    2.74617
O      0.33623   -2.14772    5.86279
O      0.65422   -3.35823    4.01428
F      3.54697   -2.67306   -1.45324
F      4.54450   -3.20750    0.45674
F     -1.50881    0.46196    1.91107
F     -0.05676    1.28446    3.36372
H      1.69485   -1.02287   -1.23306
H     -0.18212   -0.03003    0.05677
H      3.63600   -2.08801    2.44935
H      1.48468   -0.22452    4.65239
H      2.77692   -1.40354    4.52303
H      4.73981   -1.43766   -0.44074
H     -0.88816   -0.52590    3.52561
H      1.10859   -3.26198    3.15701
