50

C      2.38120   -5.62517    1.18063
C      1.29606   -5.68794    2.05734
C      2.39019   -4.67439    0.15414
C      0.22488   -4.80563    1.89166
C     -2.20720   -1.24401    1.00124
C      1.33440   -3.77365   -0.02019
C      0.24259   -3.85798    0.86629
C     -2.39217   -1.85742   -0.26710
C     -1.20463   -1.96769    1.62361
C      2.07808    0.43125    0.80487
C      2.39202   -0.89456    0.10938
C      0.72606   -0.43168   -1.58283
C      0.35019    0.90877   -0.94002
C      1.53996    1.50500   -0.15857
C     -3.34153   -1.46896   -1.36029
C     -0.52067   -1.75651    2.93655
C     -0.25200    1.86375   -1.97556
C      2.65094    2.05206   -1.06523
C      1.37460   -2.73193   -1.11941
N     -1.56353   -2.89125   -0.42188
N     -0.85714   -2.96049    0.74648
N      1.21061   -1.38292   -0.58949
O      0.98432    2.59514    0.61134
H      3.21850   -6.30853    1.29559
H      1.27448   -6.42355    2.85683
H      3.24242   -4.61725   -0.51940
H     -0.64091   -4.85710    2.54559
H     -2.71925   -0.37825    1.40105
H      1.31139    0.25791    1.56613
H      2.97751    0.80366    1.31372
H      3.25336   -0.77652   -0.57911
H      2.68949   -1.63820    0.85630
H     -0.16830   -0.85746   -2.04684
H      1.46436   -0.26965   -2.39463
H     -0.41425    0.69025   -0.18653
H     -3.17817   -0.43079   -1.67173
H     -3.19908   -2.11811   -2.22766
H     -4.38437   -1.55189   -1.03463
H     -0.81511   -2.50067    3.68463
H      0.56668   -1.81366    2.82696
H     -0.77561   -0.76837    3.32641
H      0.41509    2.01492   -2.83149
H     -0.46283    2.83843   -1.52821
H     -1.19256    1.45566   -2.36241
H      2.27962    2.88523   -1.66653
H      3.04827    1.28966   -1.74091
H      3.48812    2.41912   -0.45824
H      2.31427   -2.84470   -1.69180
H      0.54735   -2.92159   -1.80730
H      1.70983    3.00052    1.11338
