25

C      4.94289   -2.26683   -2.13518
C      3.88568   -2.06893   -3.02717
C      4.87051   -1.67730   -0.87382
C      0.23172   -1.03033    0.78272
C      1.46616   -1.33509    2.81842
C      2.79981   -1.28639   -2.61720
C     -0.64311   -2.02074    1.22483
C      1.31141   -0.66695    1.59917
C      3.73858   -0.91511   -0.55666
C      0.52681   -2.31743    3.14529
C      3.63358   -0.28431    0.80559
C      2.31425    0.38808    1.17478
N      2.71812   -0.71830   -1.40970
N     -0.50274   -2.66526    2.39629
O      4.56056   -0.35008    1.60011
Br     0.73586   -3.25652    4.81871
H      5.80239   -2.86894   -2.41749
H      3.89526   -2.50870   -4.02032
H      5.65452   -1.79214   -0.13272
H      0.08698   -0.55714   -0.18282
H      2.29072   -1.10623    3.48525
H      1.96188   -1.11187   -3.29006
H     -1.49592   -2.31988    0.61851
H      1.92521    0.94616    0.32246
H      2.52456    1.06820    2.00302
