32

C      6.68422   -4.26118    2.65285
C      6.72652    2.97423    5.93233
C      7.30383    4.05103    5.25390
C      4.66508   -7.15255    5.48908
C      6.72919    1.71397    5.34031
C      7.87465    3.85158    3.99518
C      5.27586   -6.15801    4.68748
C      4.19663   -6.66196    6.69072
C      7.30295    1.50735    4.07137
C      7.89100    2.59323    3.37596
C      5.27160   -4.90014    5.28529
C      7.25121    0.13618    3.53705
C      6.82431   -1.92680    3.45574
C      5.76872   -3.62987    4.84870
C      6.40508   -3.30581    3.67979
C      8.52720    2.45960    2.01430
N      6.89684   -5.06450    1.83519
N      6.67275   -0.90259    4.25109
N      7.73256   -0.23645    2.36229
O      7.44883   -1.61670    2.30415
S      4.49534   -4.97818    6.85941
H      6.27885    3.11462    6.91240
H      7.31093    5.04202    5.70063
H      4.57155   -8.19271    5.19611
H      6.28603    0.86675    5.85163
H      8.32215    4.69416    3.47377
H      5.70241   -6.35179    3.71172
H      3.69340   -7.20681    7.47967
H      5.62966   -2.79257    5.52968
H      9.34671    1.73523    2.02278
H      7.81180    2.09668    1.27063
H      8.91704    3.42542    1.68258
