47

C      0.66217    4.63094   -6.16946
C      1.77863    6.43967   -7.30244
C     -0.36908    4.67137   -7.11315
C      0.75874    6.49357   -8.25499
C      1.74996    5.51269   -6.24895
C     -0.31149    5.60326   -8.14919
C      2.19629    0.84352   -0.61375
C      3.00730    2.95254   -0.61042
C      1.36260    3.75094   -2.37974
C      1.10594   -1.45161   -0.99942
C      0.68834   -1.00208    0.37314
C      2.03407   -0.55770   -0.20413
C      1.14809    7.27039   -2.13650
C      3.67696    1.85808    2.25894
C      2.85130    5.51127   -5.21016
C      2.61386    6.53563   -4.08193
C      1.51990    6.12402   -3.08313
N      1.46635    1.47642   -1.48768
N      3.14357    1.68731   -0.05173
N      1.95371    2.78229   -1.49516
N      1.96270    4.96264   -2.30531
N      4.07401    1.34082    0.93484
O      3.69765    3.94670   -0.36454
O      0.42505    3.43957   -3.09662
Cl    -1.60306    5.65757   -9.34469
H      0.60360    3.91377   -5.35556
H      2.61518    7.13068   -7.38764
H     -1.20751    3.98551   -7.04117
H      0.79428    7.21053   -9.06946
H      1.41681   -2.48269   -1.13525
H      0.61115   -0.99571   -1.85038
H     -0.08498   -0.24339    0.43951
H      0.71489   -1.71632    1.19073
H      2.92523   -0.99227    0.23554
H      2.01860    7.60311   -1.55863
H      0.77281    8.12743   -2.70441
H      0.37142    6.95353   -1.43437
H      2.76037    1.35195    2.57175
H      3.51937    2.94299    2.26619
H      4.47128    1.60091    2.96470
H      2.95947    4.51304   -4.77382
H      3.80488    5.74570   -5.69598
H      2.34282    7.50168   -4.52308
H      3.54866    6.69327   -3.52773
H      0.62911    5.80675   -3.62783
H      2.73471    5.07161   -1.64834
H      4.96003    1.75840    0.65169
