39

C      0.05101   -0.70734   -7.33237
C      0.13678   -2.08215   -7.09054
C      1.22776    0.05277   -7.39028
C      1.38739   -2.68009   -6.89553
C      2.47487   -0.54726   -7.20334
C      2.56939   -1.92590   -6.94351
C      5.11631   -2.29747   -7.64925
C      4.27217   -2.10848   -5.24659
C     -0.46377   -1.51542   -3.12473
C     -0.06148   -2.80823   -2.40037
C      0.56156   -0.40211   -2.87040
C      1.35614   -3.25051   -2.79067
C      1.97339   -0.84598   -3.27578
C      2.39459   -2.13924   -2.55513
C      3.80673   -2.59692   -2.93924
C      3.90234   -2.57131   -6.63726
O      4.97035   -1.37048   -8.47758
O      6.06672   -3.09454   -7.45536
O      4.77673   -1.04700   -4.93699
O      3.85182   -3.02811   -4.31168
H     -0.91861   -0.23362   -7.47412
H     -0.76705   -2.68729   -7.04454
H      1.17047    1.12254   -7.58354
H      1.44913   -3.74704   -6.68893
H      3.39200    0.02690   -7.26041
H     -1.46487   -1.19626   -2.80524
H     -0.51573   -1.70576   -4.20418
H     -0.10633   -2.64229   -1.31330
H     -0.77832   -3.60886   -2.62469
H      0.28466    0.49948   -3.42984
H      0.54847   -0.13238   -1.80311
H      1.64039   -4.15143   -2.22994
H      1.37393   -3.52022   -3.85240
H      1.98856   -1.00883   -4.35726
H      2.70237   -0.05330   -3.07506
H      2.43075   -1.92856   -1.47270
H      4.09508   -3.47311   -2.34824
H      4.53724   -1.79914   -2.78293
H      3.76856   -3.65339   -6.58704
