25   
Generated by ForceBalance from scan.xyz: Frame 1 of 24
C        1.1610570320   -3.9939635398    2.2500416224
C        0.4610785877   -4.0449018585    1.0397536084
C        1.4585070162   -2.7513112615    2.8191151339
C        0.0639677254   -2.8629881617    0.4073628412
C        1.0603914161   -1.5725216617    2.1808685734
C        0.3593967774   -1.6107626905    0.9665466483
C        0.5251657219    1.1673679017   -1.1428231378
C       -0.0555643206   -0.2689607350   -1.2551390827
C        0.8741961282    0.8752859736    0.3434440382
C       -0.1143716071   -0.3346514872    0.3053270379
C       -1.5030605922    0.0501138080    0.8617401113
H        1.4735008867   -4.9115507268    2.7420216122
H        0.2266381375   -5.0055024995    0.5871770588
H        2.0034223911   -2.6999897128    3.7587694780
H       -0.4799846902   -2.9142511782   -0.5332074184
H        1.3004074763   -0.6118115605    2.6307779068
H       -0.2457176195    1.9367128780   -1.2433788595
H        1.3548793162    1.4182626027   -1.8091077924
H       -1.0003210476   -0.3959662472   -1.7931324626
H        0.6797328890   -0.9699955965   -1.6604896331
H        1.9108763242    0.5462622838    0.4586347637
H        0.6662454426    1.6623668727    1.0751345149
H       -2.0554437764    0.7041382835    0.1791337066
H       -1.3898768869    0.5782275592    1.8159436691
H       -2.0999651784   -0.8404524107    1.0798766076
25   
Generated by ForceBalance from scan.xyz: Frame 2 of 24
C        1.1436254336   -4.0060637275    2.2517445881
C        0.4479313598   -4.0506928541    1.0387276929
C        1.4420016628   -2.7661729224    2.8263570904
C        0.0557157551   -2.8655205224    0.4092430335
C        1.0487816802   -1.5840484174    2.1911557584
C        0.3513577109   -1.6161237774    0.9745676963
C        0.5153738360    1.1769892497   -1.1194532262
C       -0.0440077140   -0.2660965486   -1.2431835985
C        0.8791648569    0.8674661187    0.3588212762
C       -0.1178159144   -0.3363658407    0.3171500533
C       -1.5174534234    0.0550164001    0.8639142350
H        1.4521387044   -4.9262140151    2.7414111589
H        0.2130729233   -5.0090245058    0.5815589136
H        1.9840101573   -2.7195087927    3.7679490585
H       -0.4849240971   -2.9119764103   -0.5334519881
H        1.2892102180   -0.6255258968    2.6454519321
H       -0.2717654948    1.9325099055   -1.1988658767
H        1.3334774721    1.4535039176   -1.7900898801
H       -0.9789775400   -0.4078766138   -1.7942483434
H        0.7088379891   -0.9537743159   -1.6394377603
H        1.9142627607    0.5267779179    0.4540396129
H        0.6899425760    1.6471289405    1.1032305221
H       -2.1651197578    0.4726785127    0.0867806993
H       -1.4225176620    0.8065269103    1.6559676040
H       -2.0167286896   -0.8024772192    1.3225809716
25   
Generated by ForceBalance from scan.xyz: Frame 3 of 24
C        1.1268674934   -4.0225951958    2.2470751673
C        0.4269953873   -4.0561464200    1.0362423761
C        1.4355337017   -2.7877676568    2.8275076112
C        0.0409135208   -2.8649097992    0.4141157271
C        1.0472286251   -1.5997149670    2.2006623597
C        0.3454915351   -1.6208622558    0.9862118235
C        0.4964605473    1.1922383210   -1.0923129762
C       -0.0337565395   -0.2597685283   -1.2237612679
C        0.8794137817    0.8707026763    0.3764345464
C       -0.1171004776   -0.3356234107    0.3372947422
C       -1.5283010174    0.0615441265    0.8650690580
H        1.4309530979   -4.9473914458    2.7307156715
H        0.1842776880   -5.0104309101    0.5747322974
H        1.9815514316   -2.7498824413    3.7671832653
H       -0.5017183600   -2.9024569923   -0.5277878945
H        1.2941941128   -0.6450224286    2.6595719091
H       -0.3095687038    1.9295766562   -1.1527811112
H        1.3011501233    1.4964360952   -1.7672377788
H       -0.9602268515   -0.4205248120   -1.7839316409
H        0.7378231354   -0.9305316661   -1.6134137773
H        1.9156961689    0.5278256407    0.4513145206
H        0.7041119781    1.6415499650    1.1334078618
H       -2.2491236591    0.1780854916    0.0495455460
H       -1.4978151993    1.0075124042    1.4156796209
H       -1.9212205122   -0.6943421165    1.5493953727
25   
Generated by ForceBalance from scan.xyz: Frame 4 of 24
C        1.1146742869   -4.0373459888    2.2366535396
C        0.4135581915   -4.0594020333    1.0265352485
C        1.4279792714   -2.8077910847    2.8262868581
C        0.0315257092   -2.8619636804    0.4133901513
C        1.0420625558   -1.6139368476    2.2096400909
C        0.3399380977   -1.6235092891    0.9950433696
C        0.4902514913    1.2020115694   -1.0743174233
C       -0.0366971973   -0.2502043843   -1.2056285365
C        0.8739588082    0.8804235202    0.3923284464
C       -0.1175406682   -0.3324065755    0.3567284447
C       -1.5317746199    0.0615481165    0.8720851830
H        1.4162788292   -4.9667613825    2.7129450929
H        0.1668050890   -5.0093346829    0.5582637059
H        1.9754827610   -2.7789735658    3.7654124115
H       -0.5106636104   -2.8906482488   -0.5289925712
H        1.2911793914   -0.6633289841    2.6759649870
H       -0.3167305959    1.9380395035   -1.1363194254
H        1.2958487434    1.5078601323   -1.7473094016
H       -0.9647593001   -0.4097805821   -1.7636788941
H        0.7342690768   -0.9193799593   -1.5993618208
H        1.9118760401    0.5422302779    0.4672182157
H        0.6967269850    1.6491301556    1.1512888585
H       -2.2932717055   -0.1329449419    0.1088936885
H       -1.5938672225    1.1209156492    1.1391892476
H       -1.8140625719   -0.5340616847    1.7440643454
25   
Generated by ForceBalance from scan.xyz: Frame 5 of 24
C        1.1015427121   -4.0476261517    2.2274719164
C        0.3952063596   -4.0602248347    1.0202910816
C        1.4216522724   -2.8222542118    2.8221928538
C        0.0150322622   -2.8583836127    0.4146705798
C        1.0371963394   -1.6239278523    2.2135149895
C        0.3306559098   -1.6242097766    1.0014556348
C        0.4902761086    1.2116237309   -1.0560521859
C       -0.0463571382   -0.2368624563   -1.1912565707
C        0.8587532829    0.8916585247    0.4147112047
C       -0.1231922204   -0.3288841723    0.3708598678
C       -1.5366996809    0.0518923931    0.8757889457
H        1.4017808029   -4.9806903901    2.6974778842
H        0.1428858388   -5.0067880239    0.5482314043
H        1.9732497822   -2.8003651016    3.7590952606
H       -0.5303017710   -2.8801491179   -0.5260927606
H        1.2914111498   -0.6766623341    2.6838996046
H       -0.3071044958    1.9564020724   -1.1318623898
H        1.3071052114    1.5068769321   -1.7200529443
H       -0.9788678310   -0.3858348678   -1.7450443441
H        0.7167885507   -0.9101609869   -1.5930593915
H        1.8985614600    0.5627248797    0.5032207782
H        0.6661341513    1.6588219742    1.1716884043
H       -2.3007556442   -0.4049078938    0.2359735024
H       -1.7017401127    1.1337670989    0.8737416499
H       -1.7160105506   -0.3427096622    1.8801821109
25   
Generated by ForceBalance from scan.xyz: Frame 6 of 24
C        1.0876825822   -4.0542550726    2.2187456025
C        0.3831435688   -4.0621655173    1.0103879838
C        1.4063441184   -2.8308563967    2.8180930444
C        0.0038924620   -2.8577816475    0.4095197296
C        1.0233465284   -1.6298700761    2.2136036690
C        0.3189150226   -1.6254998308    1.0005346446
C        0.4972908736    1.2147283277   -1.0436563575
C       -0.0607352371   -0.2256198951   -1.1872912993
C        0.8417659286    0.8952827945    0.4338813718
C       -0.1340898322   -0.3281888866    0.3735321587
C       -1.5420077284    0.0421573884    0.8796587060
H        1.3873716307   -4.9890183554    2.6857400293
H        0.1315197571   -5.0068411903    0.5342025146
H        1.9560688920   -2.8124982835    3.7561563438
H       -0.5403134559   -2.8759075790   -0.5320269780
H        1.2773456357   -0.6845528448    2.6879948101
H       -0.2834975553    1.9747889253   -1.1361267680
H        1.3297129281    1.4920227590   -1.6957244074
H       -0.9993997134   -0.3543880800   -1.7360497480
H        0.6877645258   -0.9088947669   -1.5993423894
H        1.8816046656    0.5732397484    0.5438247093
H        0.6288035028    1.6621537043    1.1858550177
H       -2.2917819347   -0.6020546479    0.4054844798
H       -1.7977486694    1.0826701806    0.6537701900
H       -1.6273592264   -0.1276476420    1.9578426510
25   
Generated by ForceBalance from scan.xyz: Frame 7 of 24
C        1.0685001964   -4.0545128188    2.2143175446
C        0.3748231654   -4.0616002187    0.9995589004
C        1.3799483834   -2.8327360546    2.8204068285
C       -0.0014380279   -2.8565838659    0.3985185419
C        1.0008902674   -1.6309616571    2.2148161087
C        0.3075296736   -1.6253652716    0.9953957115
C        0.5212573741    1.2118500070   -1.0393313780
C       -0.0652133128   -0.2177035660   -1.1914079471
C        0.8371618823    0.8908798408    0.4464153153
C       -0.1424106273   -0.3260949015    0.3670788187
C       -1.5426941397    0.0453738162    0.8830182444
H        1.3655436827   -4.9899405787    2.6816299697
H        0.1292877785   -5.0056861980    0.5190177541
H        1.9205838011   -2.8160229569    3.7637708939
H       -0.5383480449   -2.8733728159   -0.5473160498
H        1.2498432910   -0.6865459688    2.6936740488
H       -0.2390695848    1.9902749197   -1.1473876863
H        1.3702581259    1.4665537769   -1.6791093926
H       -1.0069729983   -0.3226664960   -1.7398629075
H        0.6673623288   -0.9141743287   -1.6094088494
H        1.8736287723    0.5678820800    0.5800682484
H        0.6074845966    1.6603582226    1.1906545895
H       -2.2730798935   -0.7186829991    0.5946241085
H       -1.8752438152    1.0067880456    0.4753525129
H       -1.5468723520    0.1131409002    1.9762822786
25   
Generated by ForceBalance from scan.xyz: Frame 8 of 24
C        1.0622735823   -4.0607646746    2.2116011574
C        0.3803325859   -4.0656232498    0.9901004225
C        1.3639318731   -2.8401575927    2.8247039468
C        0.0056537747   -2.8597828626    0.3899204476
C        0.9873667152   -1.6374410431    2.2191244244
C        0.3052763533   -1.6294362620    0.9935039460
C        0.5303926307    1.2138092901   -1.0257029165
C       -0.0593384056   -0.2136779260   -1.1907840157
C        0.8426361443    0.8798923694    0.4594920198
C       -0.1441071846   -0.3285183046    0.3655411097
C       -1.5397486929    0.0458003964    0.8955970463
H        1.3576692591   -4.9968997642    2.6785387558
H        0.1426480266   -5.0087507149    0.5037407475
H        1.8950857937   -2.8248892011    3.7734680254
H       -0.5231988663   -2.8750645259   -0.5605122637
H        1.2296651264   -0.6941369493    2.7034691257
H       -0.2296468421    1.9936373792   -1.1259263574
H        1.3790021038    1.4734988652   -1.6640561909
H       -0.9968570973   -0.3152588752   -1.7468502718
H        0.6759613545   -0.9086391320   -1.6064470087
H        1.8763334700    0.5478951229    0.5917850104
H        0.6165585798    1.6460313533    1.2081254370
H       -2.2339436665   -0.7960944133    0.8118711641
H       -1.9576061459    0.8893328765    0.3329100450
H       -1.4833194431    0.3545554587    1.9452045919
25   
Generated by ForceBalance from scan.xyz: Frame 9 of 24
C        1.0397252339   -4.0635763455    2.2156643213
C        0.3699767878   -4.0651778574    0.9873936027
C        1.3312270464   -2.8445964775    2.8367484916
C       -0.0029341383   -2.8580752984    0.3885893346
C        0.9571425063   -1.6405676008    2.2320840115
C        0.2868119337   -1.6291918034    0.9999988529
C        0.5270646101    1.2172447231   -1.0064228658
C       -0.0674518268   -0.2071299427   -1.1809093347
C        0.8360482769    0.8720918877    0.4773588504
C       -0.1624853854   -0.3259243371    0.3744259810
C       -1.5594214035    0.0525067570    0.9142762006
H        1.3333899939   -5.0007651006    2.6815737076
H        0.1403453500   -5.0069331030    0.4945223942
H        1.8526336907   -2.8314428465    3.7909479747
H       -0.5232269603   -2.8713418345   -0.5665758119
H        1.1917954581   -0.6986940311    2.7228308125
H       -0.2322971722    1.9988534240   -1.0996844118
H        1.3755453873    1.4801515462   -1.6438031265
H       -1.0011515432   -0.3035645980   -1.7439453282
H        0.6683983992   -0.9031986633   -1.5936353266
H        1.8661710332    0.5287152878    0.6078571425
H        0.6170986684    1.6369352452    1.2291710709
H       -2.1920612649   -0.8281560359    1.0529124200
H       -2.0724125777    0.7295607351    0.2201828766
H       -1.4765650544    0.5942170867    1.8626024699
25   
Generated by ForceBalance from scan.xyz: Frame 10 of 24
C        1.0456005168   -4.0764986150    2.1956424226
C        0.3782806174   -4.0710461657    0.9661121729
C        1.3379331848   -2.8607592841    2.8228050745
C        0.0082700681   -2.8605725375    0.3720598983
C        0.9668638317   -1.6532184448    2.2233568403
C        0.2981344641   -1.6352379258    0.9903770921
C        0.5287532827    1.2281763874   -0.9988021985
C       -0.0430031667   -0.2033806284   -1.1842007310
C        0.8583614061    0.8641271441    0.4750170147
C       -0.1478727446   -0.3284214599    0.3707756969
C       -1.5539078184    0.0567248798    0.9059484416
H        1.3369269547   -5.0163150196    2.6577143814
H        0.1482769512   -5.0100596289    0.4682046704
H        1.8579288633   -2.8529013972    3.7778387946
H       -0.5100588140   -2.8684271964   -0.5841914316
H        1.2017918709   -0.7138841575    2.7187916309
H       -0.2478133986    1.9954206475   -1.0691400931
H        1.3640892344    1.5175299212   -1.6422575593
H       -0.9687251113   -0.3152182397   -1.7572751910
H        0.7101453526   -0.8847590621   -1.5905768899
H        1.8883350456    0.5113598644    0.5809128573
H        0.6594116349    1.6191851510    1.2419336665
H       -2.0917955692   -0.8116148148    1.2931918939
H       -2.1679031601    0.4992595550    0.1129388286
H       -1.4845570823    0.8131836130    1.6945205403
25   
Generated by ForceBalance from scan.xyz: Frame 11 of 24
C        1.0259773795   -4.0910460612    2.1906897598
C        0.3553353545   -4.0757663134    0.9630974885
C        1.3291442322   -2.8802530535    2.8224641893
C       -0.0072235518   -2.8599156595    0.3753029384
C        0.9643574166   -1.6674905602    2.2298201711
C        0.2920618723   -1.6395966457    0.9989310372
C        0.5121375853    1.2439096452   -0.9744275756
C       -0.0265937266   -0.1978335993   -1.1691377447
C        0.8591629558    0.8673628762    0.4901338870
C       -0.1456173340   -0.3282629661    0.3859779625
C       -1.5650501058    0.0624045471    0.8963309883
H        1.3118648357   -5.0349249841    2.6478381235
H        0.1171647832   -5.0109535888    0.4618327814
H        1.8525731952   -2.8803931637    3.7756609878
H       -0.5271316674   -2.8594339021   -0.5800629355
H        1.2067051524   -0.7318045937    2.7286183896
H       -0.2862144294    1.9901381804   -1.0270407342
H        1.3345456159    1.5643666472   -1.6198286408
H       -0.9416064517   -0.3304194523   -1.7549192632
H        0.7481006312   -0.8610871810   -1.5654002305
H        1.8907923055    0.5131728724    0.5759007573
H        0.6728843702    1.6123352670    1.2700499518
H       -1.9828327173   -0.7144321785    1.5410821449
H       -2.2641505608    0.2087086153    0.0663643892
H       -1.5440827213    0.9941704974    1.4707135368
25   
Generated by ForceBalance from scan.xyz: Frame 12 of 24
C        1.0131193097   -4.1038351792    2.1788408042
C        0.3449576590   -4.0792844515    0.9502552782
C        1.3172967953   -2.8984989653    2.8209459434
C       -0.0138065507   -2.8582714378    0.3705093039
C        0.9545083955   -1.6811574188    2.2371197128
C        0.2854024602   -1.6435111426    1.0045195220
C        0.5071515526    1.2513359141   -0.9593688386
C       -0.0271265655   -0.1909767090   -1.1549317606
C        0.8513338932    0.8754807954    0.5041575696
C       -0.1473704816   -0.3272426970    0.4012417820
C       -1.5716956534    0.0596660562    0.8933326661
H        1.2967505669   -5.0514880548    2.6295119990
H        0.1059555496   -5.0104767527    0.4420023072
H        1.8394189610   -2.9068113835    3.7748277616
H       -0.5305735881   -2.8497932655   -0.5864327555
H        1.1961942895   -0.7492386528    2.7434314032
H       -0.2925287440    1.9957372170   -1.0152684192
H        1.3317405174    1.5737741284   -1.6008631171
H       -0.9424383444   -0.3226902560   -1.7406456132
H        0.7479855563   -0.8523555329   -1.5536274022
H        1.8844788217    0.5263686471    0.5933308211
H        0.6605198003    1.6187537712    1.2849009444
H       -1.8595892091   -0.5471022147    1.7565813500
H       -2.3272263742   -0.0970866437    0.1174951273
H       -1.6169517754    1.1029915722    1.2223027132
25   
Generated by ForceBalance from scan.xyz: Frame 13 of 24
C        1.1755534390   -3.9130584673    2.4106424974
C        0.4178489280   -4.0249302105    1.2402148044
C        1.5036194349   -2.6428822433    2.8969979654
C       -0.0050867033   -2.8763035992    0.5640092505
C        1.0763995972   -1.4977963447    2.2182453874
C        0.3179192491   -1.5979334080    1.0423017226
C        0.3490052545    1.0800406842   -1.2224325362
C       -0.1652703487   -0.3825016718   -1.2305942130
C        0.7808662920    0.8740847894    0.2510299163
C       -0.1814883325   -0.3592473219    0.3366830083
C       -1.5802420102    0.0406106305    0.8677279343
H        1.5092087399   -4.8045601652    2.9355706347
H        0.1589100645   -5.0071434244    0.8519983649
H        2.0949728697   -2.5444543582    3.8042620733
H       -0.5901954738   -2.9748548513   -0.3475205691
H        1.3374908775   -0.5150420420    2.6046210423
H       -0.4656335793    1.8035628694   -1.3177117071
H        1.1325597128    1.3404276088   -1.9390321126
H       -1.1150494152   -0.5861794649   -1.7354666691
H        0.5944155545   -1.0720430470   -1.6107826458
H        1.8281679277    0.5648322001    0.3200453288
H        0.6075170616    1.6924264864    0.9574983143
H       -1.6830530842   -0.2471425556    1.9192903179
H       -2.3813603029   -0.4546735828    0.3107032804
H       -1.7291064484    1.1251476629    0.8359848392
25   
Generated by ForceBalance from scan.xyz: Frame 14 of 24
C        1.1717489474   -3.9190695423    2.3950846089
C        0.4184839509   -4.0271939398    1.2213840302
C        1.4980683999   -2.6512552469    2.8885915495
C       -0.0019688930   -2.8757176521    0.5486421303
C        1.0730097687   -1.5041153213    2.2119493347
C        0.3195017688   -1.5990512733    1.0324724874
C        0.3724989247    1.0829660805   -1.2222607125
C       -0.1646038502   -0.3724475999   -1.2365668539
C        0.7822089358    0.8775188783    0.2590674535
C       -0.1770950892   -0.3573913130    0.3295321813
C       -1.5687752314    0.0351787979    0.8635573263
H        1.5035527374   -4.8126304266    2.9176482564
H        0.1611896585   -5.0079689617    0.8284448819
H        2.0855395700   -2.5563986822    3.7987686181
H       -0.5837928766   -2.9707678163   -0.3653839600
H        1.3326351229   -0.5228776717    2.6031180103
H       -0.4266297312    1.8209117098   -1.3347700663
H        1.1715947188    1.3261348396   -1.9274799511
H       -1.1201842049   -0.5563506200   -1.7383375442
H        0.5804544841   -1.0732244770   -1.6247652378
H        1.8296198729    0.5739799295    0.3473604772
H        0.5918169780    1.6957483209    0.9613835054
H       -1.5861261144   -0.0262200536    1.9575012154
H       -2.3449225188   -0.6344837363    0.4795211999
H       -1.8193548022    1.0697138956    0.6041282597
25   
Generated by ForceBalance from scan.xyz: Frame 15 of 24
C        1.1820624273   -3.9217973492    2.3781567394
C        0.4352681224   -4.0253180602    1.1997991332
C        1.5016338569   -2.6550628236    2.8783866409
C        0.0144027004   -2.8726846794    0.5295971295
C        1.0780707858   -1.5055221543    2.2046575878
C        0.3312469582   -1.5975353558    1.0207720982
C        0.4096943739    1.0869728817   -1.2210934538
C       -0.1559754764   -0.3586434516   -1.2439826240
C        0.7978943400    0.8779145174    0.2672525887
C       -0.1653487992   -0.3532960175    0.3204997966
C       -1.5477212789    0.0380633524    0.8690607301
H        1.5134215286   -4.8169241953    2.8983684227
H        0.1827791381   -5.0049389471    0.8009755895
H        2.0833383418   -2.5626166019    3.7924744916
H       -0.5635128084   -2.9653834985   -0.3872495960
H        1.3339156307   -0.5256275029    2.6016064162
H       -0.3707839891    1.8424467001   -1.3470774692
H        1.2231119836    1.3105676429   -1.9163292392
H       -1.1175252651   -0.5181611700   -1.7427080330
H        0.5714540671   -1.0726751912   -1.6407913739
H        1.8437880632    0.5759339579    0.3743289987
H        0.5925817975    1.6963284841    0.9649778449
H       -1.5019953695    0.1902863341    1.9531438185
H       -2.2817818071   -0.7501198648    0.6705147632
H       -1.9058387814    0.9688342805    0.4144832776
25   
Generated by ForceBalance from scan.xyz: Frame 16 of 24
C        1.1841602172   -3.9244445889    2.3660431370
C        0.4451873654   -4.0259248781    1.1824725818
C        1.4952251689   -2.6590023241    2.8745001640
C        0.0233791986   -2.8716336227    0.5159674879
C        1.0715241889   -1.5081702618    2.2027537360
C        0.3321021029   -1.5971117443    1.0141484637
C        0.4252980732    1.0921606579   -1.2127364684
C       -0.1574295172   -0.3474363400   -1.2457874721
C        0.8045292512    0.8733258014    0.2782936287
C       -0.1671514777   -0.3506709185    0.3169693129
C       -1.5430054334    0.0417337505    0.8838905927
H        1.5160152473   -4.8206159616    2.8841086424
H        0.1995068993   -5.0046651933    0.7772247288
H        2.0703441519   -2.5683285913    3.7929368970
H       -0.5499862717   -2.9624552288   -0.4039475805
H        1.3218235658   -0.5293872209    2.6057660278
H       -0.3450818675    1.8579399284   -1.3390276075
H        1.2440657048    1.3074973897   -1.9043408031
H       -1.1206253056   -0.4926233314   -1.7455500945
H        0.5614023553   -1.0671634212   -1.6476582286
H        1.8482044633    0.5666509233    0.3917365883
H        0.5960721590    1.6904637954    0.9763220557
H       -1.4554135427    0.3987417223    1.9153407154
H       -2.2158166554   -0.8229034567    0.8832306825
H       -2.0165707197    0.8203176968    0.2747624358
25   
Generated by ForceBalance from scan.xyz: Frame 17 of 24
C        1.1856346789   -3.9327977696    2.3561280587
C        0.4554349256   -4.0300570361    1.1667852354
C        1.4873064320   -2.6686681971    2.8733890034
C        0.0334549827   -2.8729823573    0.5051373938
C        1.0642325532   -1.5151000463    2.2057852005
C        0.3327917793   -1.5996515452    1.0120045666
C        0.4293046681    1.0990134048   -1.1985503073
C       -0.1540063400   -0.3402117192   -1.2425186717
C        0.8153787450    0.8641309859    0.2890286562
C       -0.1682220821   -0.3502981821    0.3196122239
C       -1.5430951395    0.0474315686    0.9001898740
H        1.5177344905   -4.8305087880    2.8713710398
H        0.2167905610   -5.0071773711    0.7534468164
H        2.0555293337   -2.5809170824    3.7963875174
H       -0.5340433223   -2.9608808372   -0.4186558541
H        1.3083595990   -0.5379392980    2.6163396034
H       -0.3432149998    1.8650829924   -1.3103363450
H        1.2430300948    1.3223399209   -1.8937113940
H       -1.1141813056   -0.4848865943   -1.7479190929
H        0.5683100731   -1.0564905085   -1.6443616411
H        1.8564521737    0.5457444576    0.3932678943
H        0.6188533612    1.6774678115    0.9946872705
H       -1.4376778792    0.6110408512    1.8323253909
H       -2.1341140444   -0.8485544810    1.1179690594
H       -2.1294457402    0.6301805801    0.1808392176
25   
Generated by ForceBalance from scan.xyz: Frame 18 of 24
C        1.1753866636   -3.9441123464    2.3461989784
C        0.4500167828   -4.0355684674    1.1534671680
C        1.4767928703   -2.6828311433    2.8707093834
C        0.0312176171   -2.8758790140    0.4941274747
C        1.0569050393   -1.5265079223    2.2060109051
C        0.3293159225   -1.6056928891    1.0093348687
C        0.4131920963    1.1134330017   -1.1842028053
C       -0.1400084283   -0.3361098884   -1.2415389587
C        0.8220787185    0.8577530537    0.2924611575
C       -0.1676548679   -0.3527976597    0.3214668094
C       -1.5528683878    0.0521306815    0.8945026236
H        1.5044694519   -4.8444663182    2.8587418444
H        0.2125967063   -5.0108136426    0.7350364787
H        2.0418751489   -2.5996222670    3.7960799385
H       -0.5321423280   -2.9591265467   -0.4326140405
H        1.2997734852   -0.5510266495    2.6212581449
H       -0.3805023564    1.8616039235   -1.2672908547
H        1.2099211356    1.3703017989   -1.8876136874
H       -1.0896222487   -0.5025090933   -1.7597714935
H        0.6057305071   -1.0327762932   -1.6354916345
H        1.8620126492    0.5273931390    0.3696408768
H        0.6485200028    1.6614814431    1.0148092947
H       -1.4652537266    0.8308872454    1.6580678652
H       -2.0408836088   -0.8097609914    1.3593471735
H       -2.2321914186    0.3953709601    0.1069214564
25   
Generated by ForceBalance from scan.xyz: Frame 19 of 24
C        1.1820929925   -3.9559045161    2.3200191475
C        0.4389480510   -4.0368275012    1.1373532150
C        1.5099143710   -2.6995167238    2.8401715418
C        0.0291824235   -2.8707965388    0.4838458831
C        1.0977591600   -1.5367441847    2.1814889117
C        0.3526662598   -1.6050168708    0.9952147435
C        0.4312484675    1.1348823818   -1.1830851094
C       -0.0822120074   -0.3273452568   -1.2528656537
C        0.8469091215    0.8698337306    0.2881662723
C       -0.1358547804   -0.3477379497    0.3112972128
C       -1.5413270374    0.0531336095    0.8510998700
H        1.5045943641   -4.8611180208    2.8281547047
H        0.1810966939   -5.0084146134    0.7224966666
H        2.0892653623   -2.6248725191    3.7574224368
H       -0.5468207507   -2.9448826417   -0.4358766919
H        1.3597877874   -0.5650524542    2.5938531264
H       -0.3863462856    1.8586163383   -1.2522337846
H        1.2179308222    1.4262659550   -1.8843431143
H       -1.0164701749   -0.5195331937   -1.7897788722
H        0.6906807938   -1.0026042611   -1.6320059720
H        1.8884283396    0.5410747934    0.3532590492
H        0.6783860912    1.6651862748    1.0209532302
H       -1.5159033052    1.0168387679    1.3695716457
H       -1.9152844956   -0.6888348868    1.5610605187
H       -2.2782669287    0.1254929867    0.0446683862
25   
Generated by ForceBalance from scan.xyz: Frame 20 of 24
C        1.1734827800   -3.9711235620    2.3092815059
C        0.4420029369   -4.0433584291    1.1191507434
C        1.4918255454   -2.7193010061    2.8469134473
C        0.0340645152   -2.8722192523    0.4730131378
C        1.0798926416   -1.5520576357    2.1969505111
C        0.3471557598   -1.6114907587    1.0020270772
C        0.4231218804    1.1398907881   -1.1681950106
C       -0.0932898728   -0.3205444645   -1.2360791221
C        0.8432912442    0.8735180514    0.2996435658
C       -0.1375657790   -0.3476960230    0.3296406784
C       -1.5440178813    0.0503496411    0.8631703762
H        1.4949260781   -4.8803822756    2.8107921745
H        0.1916855363   -5.0117267587    0.6923502943
H        2.0627633685   -2.6523538925    3.7700277293
H       -0.5320434566   -2.9390343945   -0.4532569865
H        1.3328145562   -0.5831318023    2.6216834656
H       -0.3919874077    1.8663119901   -1.2368861805
H        1.2100395178    1.4287708514   -1.8701433162
H       -1.0322026971   -0.5077649163   -1.7667335631
H        0.6745756516   -0.9968561871   -1.6236047527
H        1.8855762501    0.5463720774    0.3618968265
H        0.6769772950    1.6671906385    1.0349902904
H       -1.5914120159    1.1197784584    1.0962335798
H       -1.7974217385   -0.4948886588    1.7753135278
H       -2.3228338347   -0.1402590835    0.1177100843
25   
Generated by ForceBalance from scan.xyz: Frame 21 of 24
C        1.1789040079   -3.9774183975    2.2860447353
C        0.4389181367   -4.0399850263    1.1005906644
C        1.5100130784   -2.7290226173    2.8237653244
C        0.0363700230   -2.8639554656    0.4601955236
C        1.1033768607   -1.5564214885    2.1799936057
C        0.3630135170   -1.6066999076    0.9895186664
C        0.4639912891    1.1512220764   -1.1720290197
C       -0.0668739337   -0.3038308587   -1.2441924162
C        0.8556285879    0.8902700172    0.3043210777
C       -0.1159398761   -0.3388658581    0.3216748606
C       -1.5246277036    0.0453142679    0.8380074701
H        1.4965137943   -4.8904284575    2.7832146655
H        0.1778283698   -5.0051359386    0.6730019745
H        2.0874122850   -2.6688446459    3.7432926171
H       -0.5356631331   -2.9240127899   -0.4629293155
H        1.3666410265   -0.5908183786    2.6060146405
H       -0.3384093953    1.8886664322   -1.2646081125
H        1.2696684628    1.4247022846   -1.8585435342
H       -1.0084171382   -0.4764282503   -1.7754921409
H        0.6913992098   -0.9890492600   -1.6347311806
H        1.8993557546    0.5734507525    0.3905239792
H        0.6667769532    1.6844517308    1.0338564599
H       -1.6698941297    1.1313194860    0.8001808080
H       -1.6788964677   -0.2747298862    1.8716541325
H       -2.3068880912   -0.3871323939    0.2051913822
25   
Generated by ForceBalance from scan.xyz: Frame 22 of 24
C        1.1656675131   -3.9848480426    2.2789349565
C        0.4335162873   -4.0423764354    1.0884016437
C        1.4906319073   -2.7384846831    2.8250453400
C        0.0330416373   -2.8634475244    0.4520110499
C        1.0859030446   -1.5636298477    2.1842736739
C        0.3537284609   -1.6078025591    0.9885116108
C        0.4688115624    1.1565939796   -1.1616082281
C       -0.0810986983   -0.2919847024   -1.2405272305
C        0.8481910952    0.8921031763    0.3184042875
C       -0.1219697104   -0.3367815886    0.3241747245
C       -1.5216552528    0.0439944899    0.8458595678
H        1.4818247139   -4.8998125120    2.7734389142
H        0.1768934886   -5.0056747148    0.6539882956
H        2.0616501442   -2.6818366451    3.7487671649
H       -0.5329445180   -2.9202207393   -0.4750334879
H        1.3450634745   -0.5998403491    2.6168966257
H       -0.3211636809    1.9061099847   -1.2615900679
H        1.2833718875    1.4180433223   -1.8421456883
H       -1.0287565165   -0.4477705694   -1.7663892488
H        0.6645648452   -0.9849495247   -1.6412864348
H        1.8913880741    0.5767926534    0.4150066971
H        0.6502766058    1.6850161510    1.0470529436
H       -1.7643255855    1.0811444627    0.5850616843
H       -1.5841983755   -0.0544859266    1.9335517545
H       -2.2913550053   -0.5835992190    0.3833800315
25   
Generated by ForceBalance from scan.xyz: Frame 23 of 24
C        1.1774220424   -3.9841972131    2.2618291512
C        0.4556201005   -4.0408221684    1.0648783185
C        1.4924885935   -2.7395214625    2.8173200596
C        0.0551444133   -2.8605617741    0.4312214265
C        1.0881475065   -1.5639381197    2.1776399587
C        0.3664042609   -1.6057667940    0.9754651858
C        0.5074031445    1.1588409128   -1.1637226500
C       -0.0701534288   -0.2796568204   -1.2505623579
C        0.8608158137    0.8939203860    0.3244350584
C       -0.1093890881   -0.3332328007    0.3124821936
C       -1.5006418353    0.0461077424    0.8470440193
H        1.4935763486   -4.8999765939    2.7547692745
H        0.2072385034   -5.0033719535    0.6240155622
H        2.0548653436   -2.6846889673    3.7464543280
H       -0.5035802852   -2.9155853234   -0.5003776583
H        1.3398282206   -0.6011208727    2.6166784408
H       -0.2612607810    1.9275316305   -1.2818889113
H        1.3391944200    1.3964252724   -1.8321026868
H       -1.0236649660   -0.4120350719   -1.7720421979
H        0.6585749743   -0.9846668436   -1.6609490434
H        1.9030722653    0.5848130135    0.4452435904
H        0.6413105165    1.6874988431    1.0460867458
H       -1.8441582966    0.9927000098    0.4138479688
H       -1.4830157590    0.1560437773    1.9365854786
H       -2.2354794757   -0.7254514375    0.5922762454
25   
Generated by ForceBalance from scan.xyz: Frame 24 of 24
C        1.1620061956   -3.9886919367    2.2653575500
C        0.4529877624   -4.0428523560    1.0605477085
C        1.4685368730   -2.7445125912    2.8263907514
C        0.0561099655   -2.8625634125    0.4249401590
C        1.0697197112   -1.5675330890    2.1854763662
C        0.3603568473   -1.6089716592    0.9761194973
C        0.5185334302    1.1613602769   -1.1489643480
C       -0.0611909432   -0.2761170549   -1.2500484476
C        0.8673828262    0.8828786793    0.3394310668
C       -0.1117794442   -0.3350860050    0.3110405778
C       -1.4986782711    0.0478693408    0.8572643746
H        1.4745093340   -4.9051129235    2.7594758435
H        0.2113717832   -5.0047989798    0.6146834147
H        2.0206693385   -2.6908294790    3.7616870531
H       -0.4937278138   -2.9162119959   -0.5120900758
H        1.3161077875   -0.6054336230    2.6290447146
H       -0.2514929621    1.9301010812   -1.2585699330
H        1.3496491054    1.4063879872   -1.8155168349
H       -1.0093129713   -0.4057293035   -1.7817835051
H        0.6715853253   -0.9793797251   -1.6561493287
H        1.9064191193    0.5628595288    0.4590696572
H        0.6527027130    1.6734168504    1.0656997547
H       -1.9445024216    0.8714841596    0.2888039729
H       -1.4181230428    0.3616782076    1.9044351395
H       -2.1771549679   -0.8112353843    0.8333754303
