23

C     -1.98025    2.62438   -0.95981
C     -2.50015    1.36019   -0.56567
C     -0.68018    2.55183   -1.40382
C     -1.58664    0.33282   -0.71132
C     -4.09120   -3.46729    0.57058
C     -6.09692   -3.81013    1.35018
C     -1.73298   -1.08205   -0.42334
N     -4.51617   -4.59217    0.05799
N     -5.80018   -4.82031    0.57119
N     -2.80427   -1.55057    0.11770
N     -5.03966   -2.91498    1.40298
N     -4.97983   -1.75926    2.19641
N     -2.83006   -2.90684    0.38877
S     -0.07384    0.93474   -1.34536
S     -7.61204   -3.58154    2.21131
H     -2.54312    3.55129   -0.92386
H     -3.50827    1.19681   -0.20141
H     -0.04842    3.35371   -1.76373
H     -0.89535   -1.74078   -0.68558
H     -4.64053   -1.00341    1.60100
H     -4.27833   -1.90982    2.92323
H     -2.23334   -3.50594   -0.18433
H     -7.22269   -2.39866    2.73769
