39

C      2.64173   -9.34486    1.88257
C      2.76729   -8.87363    0.56700
C      1.54545   -8.98317    2.67341
C      1.79916   -8.02779    0.00947
C     -3.60315   -9.07510    2.15638
C      0.58075   -8.14207    2.12222
C     -4.09054   -8.02603    1.30048
C      0.72315   -7.68371    0.81556
C     -4.07557  -10.26894    1.66812
C     -4.84929   -8.63177    0.29343
C     -0.65089   -7.65038    2.80351
C     -3.82150   -6.59854    1.40904
C     -3.89977  -11.65940    2.19019
C     -5.53687   -8.03357   -0.89021
C     -5.52579  -10.97605   -0.27806
C     -2.61461   -6.16283    2.26656
N     -4.81914   -9.98603    0.51892
N     -1.37355   -6.85484    1.92764
O     -0.98979   -7.90450    3.95090
O     -4.48505   -5.71341    0.87004
O     -0.24191   -5.23453    0.23452
O     -1.48255   -7.24443   -0.65714
S     -0.64965   -6.63057    0.37281
H      3.40753   -9.99858    2.29019
H      3.62662   -9.16648   -0.02946
H      1.43056   -9.33647    3.69369
H      1.88862   -7.65883   -1.00767
H     -3.00883   -8.96403    3.05329
H     -4.85677  -12.14461    2.41834
H     -3.36062  -12.30578    1.48596
H     -3.31785  -11.62322    3.11402
H     -5.12200   -8.41817   -1.83020
H     -6.61207   -8.25103   -0.88574
H     -5.40992   -6.95250   -0.87057
H     -6.55957  -11.09990    0.06519
H     -5.53961  -10.67214   -1.32581
H     -5.01696  -11.93825   -0.20830
H     -2.79616   -6.38185    3.32284
H     -2.48748   -5.08517    2.14055
