41

C     -2.75531   -5.54062    0.60649
C     -2.29325   -4.49721    1.41757
C     -2.94296   -5.32081   -0.76062
C     -2.02250   -3.24461    0.86426
C     -2.67146   -4.06298   -1.31040
C     -2.21093   -3.01410   -0.50567
C     -0.42055   -1.34484   -1.18743
C     -0.51866    2.14078   -2.19084
C      1.91039    0.99679   -1.00177
C     -0.94854    0.70999   -2.54666
C      1.39114    0.00119   -2.08534
C      0.12995    3.88391   -0.44227
C     -0.28385    2.38385   -0.69409
C      0.79080    1.46132   -0.07031
C     -1.92235   -1.66053   -1.10958
N      1.31978    3.97863    0.42427
N     -0.03949   -0.29072   -1.98832
O      0.41202   -1.99744   -0.56071
O      2.86134    2.27690    1.58056
O      0.43420    2.52794    2.34218
S      1.44648    2.51397    1.28508
H     -2.96609   -6.51594    1.03771
H     -2.14049   -4.66177    2.48112
H     -3.30079   -6.12466   -1.39901
H     -1.64835   -2.44400    1.49699
H     -2.81871   -3.89916   -2.37624
H      0.38619    2.40682   -2.74829
H     -1.29992    2.82467   -2.54400
H      2.68309    0.51591   -0.39914
H      2.38159    1.86000   -1.48508
H     -1.95442    0.53510   -2.16750
H     -0.99172    0.61314   -3.64053
H      1.58087    0.39572   -3.08794
H      1.91946   -0.94582   -1.99155
H      0.35601    4.38760   -1.38516
H     -0.69444    4.41678    0.03499
H     -1.21892    2.20298   -0.15682
H      0.34421    0.60670    0.43810
H     -2.36743   -1.59714   -2.10657
H     -2.39764   -0.87586   -0.50623
H      2.18692    4.11037   -0.09396
