43

C     -1.10155   -4.46940    5.74314
C     -1.98498   -4.38739    6.79921
C     -3.74158   -3.56166    5.31366
C     -2.26182   -3.39431    1.88687
C     -2.83637   -3.64623    4.22514
C     -1.49748   -4.10373    4.42798
C     -3.19598   -3.28551    2.89377
C     -3.29792   -3.93087    6.55936
C     -0.95879   -3.86386    2.20252
C      0.18068    0.66785   -1.69450
C      0.74945   -0.94370   -3.36040
C      0.80928   -3.05505   -1.10310
C      0.29957   -1.62474    0.37143
C     -0.65648    1.41203   -2.73008
C     -0.09767   -0.17102   -4.36672
C      0.97430   -1.51360   -1.02105
C      0.06281   -4.01534    1.09184
N     -0.57701   -4.20116    3.42115
N      0.20772   -0.76543   -2.00841
N     -0.10817   -3.01385    0.05641
O     -0.15080    1.21833   -4.04927
O     -4.47269   -2.84391    2.69703
F     -4.14639   -3.85990    7.61885
H     -0.08266   -4.81545    5.88665
H     -1.69730   -4.66435    7.80901
H     -4.75842   -3.21529    5.16643
H     -2.48242   -3.12333    0.85729
H      1.20169    1.09499   -1.67761
H     -0.25995    0.81748   -0.70400
H      0.73554   -2.00600   -3.62313
H      1.79776   -0.59380   -3.42290
H      0.35780   -3.46496   -2.01235
H      1.75511   -3.57952   -0.89854
H      1.02618   -1.55940    1.19538
H     -0.53770   -0.95119    0.57872
H     -1.70022    1.06615   -2.67455
H     -0.62999    2.48896   -2.54422
H      0.33427   -0.24251   -5.36839
H     -1.11551   -0.59000   -4.38658
H      2.02421   -1.17636   -0.98647
H      1.06634   -3.99967    1.55092
H     -0.06508   -5.00406    0.63048
H     -4.59392   -2.63674    1.75573
