41

C      1.92899   -6.70086   -1.68842
C      2.82382   -6.00306   -0.87219
C      0.55378   -6.47840   -1.55236
C      2.34421   -5.08686    0.06994
C      0.07671   -5.56513   -0.60907
C      0.96874   -4.85796    0.21139
C     -0.68684   -2.99520    0.72323
C     -0.97326    0.43679   -0.44360
C      1.68578   -0.54113    0.38124
C     -1.41290   -1.02872   -0.53692
C      1.00463   -1.62554   -0.51138
C     -0.01057    2.37396    0.91855
C     -0.45031    0.86304    0.93496
C      0.73442    0.01136    1.44396
C      0.44969   -3.87455    1.24624
N      1.29289    2.56407    1.58718
N     -0.35801   -1.95245   -0.10819
O     -1.85417   -3.23311    1.04137
O      3.05347    0.98495    2.59401
O      0.81033    1.30482    3.77236
S      1.60261    1.19454    2.54763
H      2.29857   -7.41212   -2.42243
H      3.89376   -6.16992   -0.96712
H     -0.14885   -7.01949   -2.18110
H      3.04708   -4.54898    0.70356
H     -0.99251   -5.39845   -0.50416
H     -0.21238    0.65435   -1.20259
H     -1.83698    1.06125   -0.70117
H      2.56023   -0.96074    0.88495
H      2.06031    0.27255   -0.24924
H     -2.28081   -1.21911    0.09531
H     -1.70457   -1.25324   -1.57197
H      0.96653   -1.28303   -1.54956
H      1.60355   -2.53333   -0.52398
H      0.07841    2.73908   -0.10761
H     -0.76156    2.98056    1.42809
H     -1.25771    0.75568    1.66363
H      0.38499   -0.78156    2.10566
H      0.02109   -4.41597    2.09347
H      1.27600   -3.26852    1.63100
H      2.07045    2.67523    0.93920
