39

C     -4.67201   -5.34569    7.58107
C     -5.65137   -4.48051    7.07032
C     -3.72795   -5.94024    6.73647
C     -5.71057   -4.18767    5.70124
C     -3.89377   -8.69648    2.37927
C     -3.78385   -5.65132    5.37438
C     -4.15544   -7.88601    1.21941
C     -4.76205   -4.78954    4.88633
C     -4.83586   -9.69565    2.41412
C     -5.27996   -8.42257    0.58381
C     -2.87166   -6.18616    4.32336
C     -3.44013   -6.69374    0.78768
C     -5.00748  -10.82415    3.38046
C     -6.03861   -7.93629   -0.60753
C     -6.87018  -10.30311    1.04273
C     -2.56398   -5.96829    1.83037
N     -5.67815   -9.51541    1.31321
N     -3.25498   -5.68970    3.08688
O     -1.93314   -6.94924    4.50426
O     -3.48459   -6.22044   -0.34752
O     -5.73265   -5.18950    2.41114
O     -4.13640   -3.26397    2.75349
S     -4.59855   -4.60115    3.11780
H     -4.64831   -5.55449    8.64681
H     -6.37451   -4.02940    7.74378
H     -2.96182   -6.61167    7.11226
H     -6.46518   -3.51940    5.29791
H     -3.07650   -8.59007    3.07992
H     -5.99072  -10.81151    3.86673
H     -4.88625  -11.80544    2.90427
H     -4.24969  -10.74297    4.16312
H     -5.95517   -8.63221   -1.45217
H     -7.10347   -7.81057   -0.37997
H     -5.62969   -6.97938   -0.92839
H     -7.75296   -9.86967    1.52718
H     -7.04893  -10.35105   -0.03246
H     -6.73263  -11.32042    1.41196
H     -2.21410   -5.03569    1.38178
H     -1.70005   -6.58358    2.09828
