43

C     -4.04636    6.17671   -2.90182
C     -4.90511    5.26923   -3.55780
C     -3.29571    5.76960   -1.80003
C     -5.02557    3.94104   -3.14564
C     -3.42440    4.44535   -1.37022
C     -4.26064    3.54441   -2.04352
C     -2.79710    3.72332   -0.25313
C     -2.34130    0.19419   -0.51680
C      0.96895   -0.78720   -1.69121
C     -0.55488   -0.71152   -1.88346
C     -0.20219    1.47467   -0.80007
C      1.00241    1.02958    0.05932
C      1.37745   -0.44858   -0.24627
C      2.13298    2.04660   -0.13260
C      2.85440   -0.76945   -0.00278
C     -2.88671    1.28905    0.41624
N     -4.14632    2.26882   -1.47038
N     -3.36246    2.45480   -0.30294
N     -1.12214    0.38067   -1.08551
O     -1.93548    4.07740    0.55630
O     -3.04095   -0.80092   -0.73130
O      0.57706   -1.21910    0.68040
H     -3.97615    7.19926   -3.26142
H     -5.48373    5.61033   -4.41230
H     -2.63298    6.45101   -1.27424
H     -5.67726    3.24567   -3.66748
H      1.30892   -1.79515   -1.95865
H      1.48610   -0.10050   -2.37151
H     -0.80132   -0.56995   -2.94394
H     -1.03855   -1.63225   -1.55834
H     -0.71052    2.30309   -0.31388
H      0.16007    1.86264   -1.76176
H      0.69904    1.04017    1.11157
H      2.53092    2.01989   -1.15421
H      2.96207    1.87945    0.55916
H      1.75346    3.05868    0.04440
H      3.13845   -0.51576    1.02256
H      3.51335   -0.23365   -0.69206
H      3.02980   -1.84272   -0.14512
H     -2.15469    1.65760    1.13720
H     -3.71087    0.82312    0.96341
H     -5.02082    1.78908   -1.25988
H      0.72327   -2.16139    0.49605
