21

C      2.02373   -1.16195   -0.24135
C      0.86923   -0.57056    0.28010
C      3.03851   -1.58111    0.62115
C      0.73637   -0.40393    1.66045
C      2.93743   -1.42384    2.01208
C      1.76311   -0.83140    2.50551
C      3.73338   -3.17959    3.66933
C      4.04425   -1.89451    2.92407
N      4.31313   -3.54641    4.75949
N      2.84065   -4.07221    3.07559
O      5.31838   -2.60724    5.14420
Cl     1.55462   -0.62087    4.24064
H      2.13301   -1.29704   -1.31376
H      0.07250   -0.23866   -0.37989
H      3.93310   -2.04768    0.21649
H     -0.15307    0.05258    2.08320
H      4.95303   -2.06592    2.33776
H      4.29273   -1.13508    3.66773
H      2.02304   -3.63023    2.66815
H      2.59253   -4.83606    3.69794
H      5.60803   -2.96872    5.99619
