39

C      2.06729   -0.84456    7.15857
C     -2.99211    4.21223   -1.52458
C      1.99611   -1.56620    5.98414
C     -2.00081    3.34648   -1.06514
C      2.04152    0.57108    7.13764
C      1.72376   -0.83091    2.32571
C     -3.86400    3.76487   -2.52318
C     -2.83528    1.72378   -2.60759
C      1.89768   -0.88605    4.74397
C     -1.90432    2.05856   -1.61224
C      1.86968    0.54246    4.69042
C      1.81808   -1.56226    3.49014
C      1.94458    1.22874    5.93418
C      1.70767    0.58670    2.40197
C     -0.66281    0.77946    0.33850
C      0.63475    1.48131   -1.16890
C     -0.86514    1.06817   -1.17592
C      1.63616    1.39987    1.12498
N     -3.79452    2.54098   -3.06264
N      1.77035    1.26066    3.53627
N      0.80495    0.76434    0.11662
O      1.84036   -2.92600    3.52272
F      1.91964    2.57792    5.92209
H      2.14385   -1.35823    8.11262
H     -3.09311    5.21553   -1.12000
H      2.01505   -2.65053    5.99236
H     -1.31203    3.67102   -0.28852
H      2.09674    1.14996    8.05465
H      1.64988   -1.30314    1.34921
H     -4.64944    4.41598   -2.90413
H     -2.80084    0.73346   -3.06272
H     -0.99077    1.61878    0.97043
H     -1.08040   -0.15043    0.73752
H      1.26544    1.11954   -1.98784
H      0.75613    2.57149   -1.07377
H     -0.99442    0.13154   -1.72375
H      1.29155    2.41325    1.39114
H      2.64955    1.50042    0.71316
H      1.78411   -3.26480    2.61407
