25   
Generated by ForceBalance from scan.xyz: Frame 1 of 24
C        0.8350755173   -3.1275972467   -0.5343923304
C        0.7545798373    0.1886759532   -0.5335238821
C       -1.3146797451    0.7808901050    0.2248891705
C        0.6932903032   -0.1058386862    0.9744203682
C       -0.1165441856   -3.8710054220   -1.4569335137
C       -0.9523982599    0.7904076708   -2.1903756562
C        0.9440688498   -1.5610532478    1.3747313173
N       -0.6611023554    0.1504405813   -0.9160331847
N        0.2399818595   -2.5209892371    0.5414111224
O        2.0470050066   -3.0726654038   -0.7491727491
O       -0.6570639835    0.2503223008    1.3649696209
H        1.1951345967    1.1873517101   -0.7070722683
H        1.3390903520   -0.5493898522   -1.0863735200
H       -1.2070351419    1.8858422516    0.2053865744
H       -2.3781108386    0.5241238518    0.2741409704
H        1.3916156937    0.5309944319    1.5314333537
H       -0.4317361358   -3.1904772118   -2.2553602958
H        0.4109903125   -4.7109259675   -1.9112434249
H       -1.0112284862   -4.2327928729   -0.9419691760
H       -2.0276109501    0.7428070726   -2.3919329683
H       -0.4350348030    0.2578295815   -2.9936414974
H       -0.6388190136    1.8505779069   -2.2214048122
H        0.6131031810   -1.6810844082    2.4120183470
H        2.0119514755   -1.7843971579    1.3433026115
H       -0.7675841187   -2.4258146052    0.5159505331
25   
Generated by ForceBalance from scan.xyz: Frame 2 of 24
C        0.5711483562   -2.5211060212    0.0319853047
C        0.3686547237    0.8788779106   -0.3362466383
C       -1.5997238413    1.7366636198    0.4324426401
C        0.3536961070    0.7289360151    1.1891461864
C       -0.2107063538   -3.3556501495   -0.9702335991
C       -1.3846685364    1.3942373689   -1.9779113606
C        0.4167057098   -0.7156668490    1.7103136374
N       -1.0656706552    0.9064153292   -0.6433950981
N       -0.1860026092   -1.6943611628    0.8212280030
O        1.7941031479   -2.6193494564    0.1401518194
O       -0.9042458993    1.3250564827    1.5991918121
H        0.8673649982    1.8211468707   -0.6259845081
H        0.8703039309    0.0505447380   -0.8413103654
H       -1.4203673724    2.8158467462    0.2466096955
H       -2.6728166220    1.5691021623    0.5734939174
H        1.1605523241    1.3041266169    1.6566814902
H        0.2884765393   -3.2984545774   -1.9403717030
H       -0.1873999011   -4.4015052587   -0.6495966716
H       -1.2536911751   -3.0448108442   -1.0780596836
H       -2.4707026528    1.4138316714   -2.1150077278
H       -0.9628199564    0.7167314367   -2.7259344568
H       -0.9911872038    2.4094382334   -2.1688221183
H       -0.1076957800   -0.7293599388    2.6720315615
H        1.4488403336   -1.0108361703    1.9042317556
H       -1.1281640459   -1.4900622323    0.5101220453
25   
Generated by ForceBalance from scan.xyz: Frame 3 of 24
C        0.6990916389   -2.4746570126    0.1147912974
C        0.3845652028    0.9262960857   -0.3713052708
C       -1.4844691490    1.9235125206    0.4793902868
C        0.4492063800    0.8123127781    1.1508181450
C        0.0425374063   -3.3446628157   -0.9458249131
C       -1.4583667526    1.4409002179   -1.9154698240
C        0.3443837560   -0.6256293086    1.7148977496
N       -1.0646888890    1.0085726845   -0.5813807609
N       -0.1448690883   -1.6228599466    0.7786931843
O        1.9011290956   -2.5617473017    0.3671312337
O       -0.6835949127    1.5948426069    1.6071559206
H        0.9035525451    1.8403471639   -0.7113474576
H        0.8169970265    0.0672538458   -0.8879180795
H       -1.3113806969    2.9822342881    0.1991763436
H       -2.5429014671    1.7854234068    0.7269671433
H        1.3489042517    1.2878724956    1.5528720655
H        0.5892811988   -3.2272364762   -1.8851236027
H        0.1332813397   -4.3918467942   -0.6437003804
H       -1.0140158732   -3.1146891433   -1.1099489427
H       -2.5495251280    1.5057361905   -1.9767133780
H       -1.1226827511    0.7060384152   -2.6530077118
H       -1.0356188310    2.4248503071   -2.1885047986
H       -0.3427110540   -0.5729897970    2.5654850799
H        1.3063585691   -0.9593284624    2.1049559366
H       -1.0511574415   -1.4376535054    0.3649356307
25   
Generated by ForceBalance from scan.xyz: Frame 4 of 24
C        0.7369054155   -2.5053130723    0.1297763835
C        0.3346722045    0.8632184519   -0.4359998313
C       -1.3808502650    2.0297327699    0.5263392037
C        0.4836210993    0.7463858913    1.0771587175
C        0.2079058274   -3.4373577401   -0.9489916406
C       -1.5682687297    1.5155789779   -1.8535491140
C        0.1735586734   -0.6597662999    1.6688381412
N       -1.1125907054    1.0683240069   -0.5446326726
N       -0.1952330172   -1.6854580508    0.7086977942
O        1.9205826899   -2.5122892127    0.4686975988
O       -0.4796151924    1.7041963830    1.5802513025
H        0.9083161065    1.7306986732   -0.8090808243
H        0.6563348517   -0.0263420818   -0.9797618173
H       -1.1913790699    3.0714963354    0.2002081806
H       -2.4155488731    1.9466453027    0.8793041257
H        1.4683688964    1.0794402694    1.4141228510
H        0.8074172929   -3.3054884457   -1.8535790390
H        0.3428695372   -4.4700462164   -0.6153101507
H       -0.8477400511   -3.2789710581   -1.1876149757
H       -2.6522390611    1.6687889647   -1.8362379722
H       -1.3492935037    0.7473230532   -2.6010512248
H       -1.0894792915    2.4587775644   -2.1741313564
H       -0.6579252931   -0.5285325630    2.3663296705
H        1.0248781677   -1.0253452987    2.2436591975
H       -1.0878224436   -1.5685287408    0.2451594966
25   
Generated by ForceBalance from scan.xyz: Frame 5 of 24
C        0.8851332696   -2.4910416449    0.1370836670
C        0.2764323491    0.8257117620   -0.5443763869
C       -1.2249979599    2.1669409575    0.5443674280
C        0.5253166855    0.6839825983    0.9529159378
C        0.5183592780   -3.5513064501   -0.8887053890
C       -1.6383078245    1.7036535321   -1.8152563899
C        0.0606368578   -0.6663644968    1.5745128172
N       -1.1415086780    1.1938969152   -0.5454978188
N       -0.1566128489   -1.7593697952    0.6395079332
O        2.0472802634   -2.3167949991    0.5053033225
O       -0.2654516776    1.7561440275    1.5162039783
H        0.9179067835    1.6246682344   -0.9587424042
H        0.4520712808   -0.0886935525   -1.1126840205
H       -0.9694434955    3.1901623938    0.2056687369
H       -2.2282995334    2.1755033695    0.9870988141
H        1.5686541928    0.8750956127    1.2113518397
H        1.1152407445   -3.3919968147   -1.7905743681
H        0.7875063045   -4.5323145534   -0.4873473256
H       -0.5428415884   -3.5582401770   -1.1538790159
H       -2.6944874838    1.9760227914   -1.7186530065
H       -1.5616043327    0.9247165506   -2.5797975238
H       -1.0821134335    2.5919650017   -2.1674390083
H       -0.8780060704   -0.4821837381    2.1002493094
H        0.7994784102   -1.0030791551    2.3037183580
H       -1.0529079432   -1.8037570403    0.1732694940
25   
Generated by ForceBalance from scan.xyz: Frame 6 of 24
C        0.8651210920   -2.5142956455    0.2446999804
C        0.0518348186    0.8085083289   -0.5963022452
C       -1.1696304720    2.3208290159    0.6083067366
C        0.3833107676    0.6035705548    0.8798233012
C        0.6680899790   -3.6749197155   -0.7167467775
C       -1.7892595961    1.9827192300   -1.7262917453
C       -0.2091566113   -0.6866082529    1.5052469822
N       -1.2939366946    1.3760902068   -0.5002961069
N       -0.2648285823   -1.8396880686    0.6129060626
O        1.9771142243   -2.2061769185    0.6760117163
O       -0.2401896355    1.7411229944    1.5189904392
H        0.7733163280    1.5132985637   -1.0492101231
H        0.0555596426   -0.1132873711   -1.1810581499
H       -0.7762699082    3.3019563586    0.2744694252
H       -2.1346353420    2.4729491468    1.1065251093
H        1.4569930303    0.6517143850    1.0672112270
H        1.3014415516   -3.5175900381   -1.5938227452
H        1.0068121337   -4.5931892762   -0.2291677941
H       -0.3683679680   -3.8080527322   -1.0402903738
H       -2.7871310992    2.4006299394   -1.5568518364
H       -1.8735840092    1.2202668529   -2.5065484307
H       -1.1338283565    2.7912133187   -2.1004251549
H       -1.2239930633   -0.4728411605    1.8416882995
H        0.4028169197   -0.9721025412    2.3638732256
H       -1.1374962622   -2.0447347103    0.1468894967
25   
Generated by ForceBalance from scan.xyz: Frame 7 of 24
C        1.0488431494   -2.6134348768    0.3396318153
C       -0.0706184960    0.8010604431   -0.7139509608
C       -0.9800319728    2.3996503586    0.6403512879
C        0.3799495040    0.5089230943    0.7181219921
C        1.0058498677   -3.8490755387   -0.5448951550
C       -1.8335211351    2.2416936171   -1.6383495554
C       -0.2493026826   -0.7567522147    1.3346182560
N       -1.3197024656    1.5273093556   -0.4802010760
N       -0.1338892689   -1.9446400447    0.4923590340
O        2.0859699126   -2.2411116388    0.8891576131
O       -0.1007762403    1.6472328126    1.4676154965
H        0.6837092149    1.4228776823   -1.2307743819
H       -0.2380507973   -0.1007272544   -1.3082937006
H       -0.4620878976    3.3214146361    0.3046216449
H       -1.8734367393    2.6781089900    1.2110426310
H        1.4669770868    0.4607227003    0.8059818686
H        1.7511125808   -3.7407318820   -1.3371681960
H        1.2898877392   -4.7177361104    0.0554829173
H        0.0269368662   -4.0352892101   -0.9964527531
H       -2.7508007221    2.7752418996   -1.3681570498
H       -2.0818166775    1.5290034629   -2.4306265228
H       -1.1126712197    2.9754112174   -2.0454214709
H       -1.3076718065   -0.5708254472    1.5233258593
H        0.2601111175   -0.9704514613    2.2775590328
H       -0.9517448374   -2.2709030392   -0.0020645523
25   
Generated by ForceBalance from scan.xyz: Frame 8 of 24
C        1.0593433229   -2.7073405052    0.4534818550
C       -0.2786638197    0.8297825249   -0.8305902077
C       -0.8872316099    2.4463533193    0.6632221485
C        0.2787352004    0.4360984435    0.5397228256
C        1.1577315091   -3.9726072737   -0.3839095525
C       -1.9592426364    2.4812390326   -1.5282272978
C       -0.3778556988   -0.8130907742    1.1440536489
N       -1.4171975440    1.6672958072   -0.4517816834
N       -0.1215789661   -2.0203106411    0.3644369608
O        1.9855227198   -2.3274413841    1.1688725106
O       -0.0435354976    1.5601160383    1.3865346738
H        0.4786456237    1.3911180451   -1.4086590244
H       -0.5978323181   -0.0289043410   -1.4289857396
H       -0.2923148295    3.3155011995    0.3142084483
H       -1.6913813089    2.8007740178    1.3176927996
H        1.3633888898    0.3026545670    0.5251495926
H        2.0383151953   -3.8999616117   -1.0273864879
H        1.3107906910   -4.8233293590    0.2858837625
H        0.2764278670   -4.1628036689   -1.0036078506
H       -2.7854210002    3.0923875607   -1.1502300282
H       -2.3553817921    1.8335437257   -2.3161801906
H       -1.2069389587    3.1553841352   -1.9790823129
H       -1.4574679666   -0.6577742925    1.2072693186
H        0.0215506381   -0.9585992300    2.1504595441
H       -0.8549990208   -2.3835612929   -0.2268616143
25   
Generated by ForceBalance from scan.xyz: Frame 9 of 24
C        3.1494297933   -2.1840451541    0.7072389326
C        0.8653480983    0.3131240271   -0.4215600092
C       -1.3759342848    0.5226690066   -0.0391567749
C        0.6111672187    0.0420223001    1.0657470154
C        4.6001994427   -2.4012975861    1.1078063632
C       -0.6355732535    0.4014065730   -2.3640513889
C        0.9148646825   -1.4017219108    1.4896744779
N       -0.4336584348   -0.0389983764   -0.9941297719
N        2.3426648539   -1.6445184627    1.6729678120
O        2.7397260741   -2.4802986744   -0.4151106275
O       -0.8004971077    0.2825737022    1.2412349094
H        1.1130191112    1.3799902571   -0.5816688924
H        1.6584370032   -0.3105362510   -0.8387232190
H       -1.5145806114    1.6155428469   -0.1785162840
H       -2.3502635763    0.0252733030   -0.0964544465
H        1.1649005081    0.7380087707    1.7080202478
H        4.8298496610   -3.4665392587    1.0179965489
H        5.2425058650   -1.8675909262    0.4023848361
H        4.8346358765   -2.0719172310    2.1243333824
H       -1.6342859735    0.1079331105   -2.7040940149
H        0.0971587758   -0.0849704589   -3.0140948658
H       -0.5355889583    1.4971011649   -2.4842915530
H        0.5404714470   -2.0932556744    0.7327766231
H        0.3999198820   -1.6036895361    2.4336179974
H        2.7537048984   -1.4187076035    2.5680594890
25   
Generated by ForceBalance from scan.xyz: Frame 10 of 24
C        3.3150956647   -2.2386302220    0.7233678613
C        0.8696711886    0.1759439281   -0.5720848514
C       -1.2926313684    0.5460900843    0.0616379019
C        0.7661651147   -0.0852848059    0.9336211972
C        4.7158056462   -2.5092404653    1.2490624480
C       -0.8355517501    0.3708524857   -2.3305585965
C        1.0047337117   -1.5531969802    1.3319098064
N       -0.5084737331   -0.0861809989   -0.9897687343
N        2.3954938797   -1.8461156059    1.6572249762
O        3.0358382195   -2.3762861357   -0.4683743934
O       -0.5896374408    0.2766278536    1.2709535586
H        1.1660531032    1.2252282683   -0.7621911700
H        1.5739544508   -0.4959678200   -1.0665493642
H       -1.3709396106    1.6445809585   -0.0782280348
H       -2.2990844662    0.1177273566    0.1235337988
H        1.4444706651    0.5581660887    1.5069944464
H        4.9692087944   -3.5526787701    1.0427065007
H        5.4240259852   -1.8850111050    0.6979961049
H        4.8311927599   -2.3214390934    2.3205639617
H       -1.8849516467    0.1494374469   -2.5519184686
H       -0.2182658694   -0.1634159431   -3.0583052546
H       -0.6731245689    1.4568691393   -2.4671804031
H        0.6994411021   -2.2088820925    0.5134131453
H        0.3716547551   -1.7847698732    2.1925701003
H        2.7041489699   -1.7086670132    2.6095505800
25   
Generated by ForceBalance from scan.xyz: Frame 11 of 24
C        3.4206768534   -2.1309857723    0.8458808460
C        0.8028409914    0.0972419042   -0.7446007180
C       -1.2315832766    0.6561317800    0.1254414766
C        0.8585483644   -0.1369094778    0.7668885525
C        4.7450206035   -2.4517660274    1.5187097161
C       -1.0744358478    0.4155868815   -2.2978476631
C        1.0269724704   -1.6177372381    1.1766766013
N       -0.6313190303   -0.0544851752   -0.9953215632
N        2.3550569727   -1.9450640372    1.6811305313
O        3.3164389964   -2.0547314883   -0.3798529504
O       -0.4130445458    0.3512826048    1.2505048257
H        1.1594233356    1.1158794770   -0.9896142570
H        1.3979260977   -0.6301020555   -1.2991950312
H       -1.2394125244    1.7547158581   -0.0339440057
H       -2.2546422343    0.3126786876    0.3154637197
H        1.6505858263    0.4542023295    1.2399057121
H        5.0903801831   -3.4259277180    1.1619700317
H        5.4849233780   -1.7086194984    1.2100172659
H        4.6920942091   -2.4721545134    2.6111048523
H       -2.1570955242    0.2808551470   -2.3931199017
H       -0.5918800823   -0.1740587192   -3.0825840012
H       -0.8405143138    1.4828744688   -2.4727976804
H        0.8167499432   -2.2627722187    0.3199835739
H        0.2852400716   -1.8461844466    1.9447664386
H        2.5070310719   -1.9568625834    2.6798431136
25   
Generated by ForceBalance from scan.xyz: Frame 12 of 24
C        1.8253665070   -1.5581899028    3.3624236575
C        0.7473388491    0.3987646780    0.1152575129
C       -1.4361624751    0.4313437617   -0.5453487020
C       -0.0934028044   -0.1736740710    1.2570057969
C        2.1449324967   -1.8543688885    4.8176739174
C        0.2593272106    0.7974252564   -2.2600476610
C        0.1675680564   -1.6705007412    1.5535625198
N       -0.1045247450    0.0995205404   -1.0371727010
N        0.5873343355   -1.9346086321    2.9251551825
O        2.6398641776   -1.0151337119    2.6125322120
O       -1.4595494050    0.0055545910    0.8128721658
H        0.8910931203    1.4870097701    0.2527752162
H        1.7275191661   -0.0748372644    0.0375246502
H       -1.6348794878    1.5225564889   -0.5899208574
H       -2.2130747354   -0.0985663284   -1.1081007180
H        0.0383959242    0.3995510192    2.1791980886
H        3.0277142942   -2.4981732416    4.8571643066
H        2.3999507883   -0.9173259112    5.3199095267
H        1.3268698347   -2.3391590245    5.3582036955
H       -0.4413319564    0.5351740889   -3.0598007934
H        1.2598382168    0.4869992383   -2.5749185066
H        0.2580789508    1.8977132845   -2.1439380355
H        0.9395941132   -2.0532093477    0.8813642541
H       -0.7490224998   -2.2276302197    1.3536325699
H       -0.0838533080   -2.3003337472    3.5856413325
25   
Generated by ForceBalance from scan.xyz: Frame 13 of 24
C        1.8454502346   -1.6082217413    3.4755422528
C        0.8263025194    0.4063180024   -0.0520945705
C       -1.4269282094    0.4502675916   -0.4020190848
C        0.1515958117   -0.1495148602    1.2040539333
C        1.9547746362   -1.9242990946    4.9575345306
C        0.0142140329    0.7945219744   -2.3383956814
C        0.4374743248   -1.6471932143    1.4614974801
N       -0.1787216576    0.1048685883   -1.0723958334
N        0.6722273758   -1.9577491242    2.8678073449
O        2.7661703718   -1.0760513722    2.8516946197
O       -1.2614452374    0.0441708487    0.9517119755
H        0.9964346447    1.4942764339    0.0540746344
H        1.7828806478   -0.0730569542   -0.2713429576
H       -1.6263486518    1.5416656313   -0.4342401009
H       -2.2766785511   -0.0830436514   -0.8431738357
H        0.4228547095    0.4264996437    2.0920343604
H        2.8198134252   -2.5744143544    5.1132952670
H        2.1405078890   -0.9950367601    5.5029590531
H        1.0657995680   -2.4098975485    5.3703017454
H       -0.7936092922    0.5331565222   -3.0299169617
H        0.9583284607    0.4756782425   -2.7896240891
H        0.0358420472    1.8952545906   -2.2292764629
H        1.3146706433   -1.9693519861    0.8970954427
H       -0.4257756925   -2.2276006917    1.1325750907
H       -0.0974705986   -2.2906153005    3.4313376638
25   
Generated by ForceBalance from scan.xyz: Frame 14 of 24
C        1.8276159908   -1.6369745842    3.5600388126
C        0.8819340454    0.4111558973   -0.2225554576
C       -1.3973014625    0.4682433744   -0.2642678240
C        0.3796229436   -0.1205328308    1.1251797786
C        1.7029097421   -1.9528078440    5.0411468938
C       -0.2281698615    0.8097296006   -2.3762842148
C        0.7090432516   -1.6047033334    1.3663180909
N       -0.2537755141    0.1174047809   -1.0973834020
N        0.7440787325   -1.9483674034    2.7853709506
O        2.8513258468   -1.1435591171    3.0829538747
O       -1.0577341168    0.0455260128    1.0497652245
H        1.0833297309    1.4967014404   -0.1540912517
H        1.7916163917   -0.0855206495   -0.5697514401
H       -1.5881849569    1.5619116470   -0.2613950914
H       -2.3039580382   -0.0532744023   -0.5908655124
H        0.7593969620    0.4755345815    1.9584956078
H        2.5142020500   -2.6287883230    5.3239792418
H        1.8331816787   -1.0280680255    5.6099751899
H        0.7473212593   -2.4094114359    5.3145875725
H       -1.1233259658    0.5553211326   -2.9532713778
H        0.6444169178    0.4863976646   -2.9513885078
H       -0.1847209849    1.9100002505   -2.2687765203
H        1.6805243220   -1.8584877324    0.9394686824
H       -0.0730912502   -2.2140138817    0.9099960265
H       -0.1194358733   -2.2191581648    3.2352928732
25   
Generated by ForceBalance from scan.xyz: Frame 15 of 24
C        1.8162731029   -1.6778113373    3.5977670636
C        0.9197977975    0.4247401831   -0.3546933093
C       -1.3500263980    0.4691376201   -0.1233439831
C        0.5845847424   -0.0740195748    1.0567333849
C        1.4825926344   -1.9840509833    5.0485312625
C       -0.4435456361    0.7850510396   -2.3650526817
C        0.9611522815   -1.5405220269    1.2891374297
N       -0.3115038194    0.1129910901   -1.0817821739
N        0.8199957244   -1.9219459398    2.6905752571
O        2.9242490939   -1.2566824910    3.2615879853
O       -0.8558393274    0.0588853772    1.1443739439
H        1.1297092004    1.5104384203   -0.3382345023
H        1.7801031247   -0.0850307533   -0.7977994851
H       -1.5437696443    1.5621905180   -0.1079375239
H       -2.2865495437   -0.0583396264   -0.3353585470
H        1.0447238769    0.5472812988    1.8300869457
H        2.2062714136   -2.7103451987    5.4278572002
H        1.5975919671   -1.0688868396    5.6359032595
H        0.4727270065   -2.3782291308    5.1936854238
H       -1.3997646756    0.5174329590   -2.8264123683
H        0.3556992907    0.4562017613   -3.0357141275
H       -0.3942922116    1.8870354134   -2.2805913281
H        1.9971516172   -1.7224089250    0.9989365565
H        0.2856810560   -2.1740410418    0.7093815121
H       -0.1162416392   -2.0908394469    3.0334299509
25   
Generated by ForceBalance from scan.xyz: Frame 16 of 24
C        1.7871167573   -1.7292088759    3.6889498647
C        0.9826639986    0.4146735537   -0.4096572257
C       -1.2624497424    0.4522778080    0.0116734012
C        0.7690997610   -0.0252340698    1.0438619111
C        1.2606951714   -2.0306594647    5.0825643763
C       -0.5485832118    0.7024506322   -2.3076526409
C        1.1979128501   -1.4685046726    1.3070841925
N       -0.3039417742    0.0739109348   -1.0188376229
N        0.8846765475   -1.8797661619    2.6682517031
O        2.9571251675   -1.3957369031    3.4973011803
O       -0.6634067308    0.0762129447    1.2442000734
H        1.1937690131    1.4987259923   -0.4593032148
H        1.8028081942   -0.1187642895   -0.9002326738
H       -1.4605560425    1.5445222822    0.0146150009
H       -2.2098260596   -0.0843621064   -0.1082282008
H        1.2665467418    0.6403782707    1.7560225337
H        1.8776251329   -2.8162353156    5.5267871843
H        1.3735661912   -1.1358257033    5.7009115638
H        0.2139791495   -2.3473103136    5.0982216707
H       -1.5376363083    0.4138614311   -2.6781091329
H        0.1944652449    0.3561998815   -3.0320102325
H       -0.5020767240    1.8068477779   -2.2637853598
H        2.2761146971   -1.5729422092    1.1725149047
H        0.6730464518   -2.1293210714    0.6106980663
H       -0.0967972950   -1.9549102960    2.9019762350
25   
Generated by ForceBalance from scan.xyz: Frame 17 of 24
C        1.8645333045   -1.8932183439    3.6782674850
C        0.9387696449    0.4537531852   -0.4826554359
C       -1.2626644083    0.4097724275    0.1340117151
C        0.8743805570    0.1017826027    1.0065095662
C        1.2345352111   -2.2145547112    5.0241154961
C       -0.7635197641    0.5239980505   -2.2523391820
C        1.4027564730   -1.2993922026    1.3206389819
N       -0.3745231379    0.0075417036   -0.9491419269
N        0.9851349377   -1.7372107465    2.6399628744
O        3.0853867554   -1.8053175356    3.5420895732
O       -0.5379587664    0.1608282782    1.3327480969
H        1.0845815679    1.5408383371   -0.6200864547
H        1.7416242308   -0.0726395606   -1.0087389466
H       -1.5246940835    1.4866863635    0.0804880598
H       -2.1825940555   -0.1847955459    0.1362672421
H        1.3904818262    0.8380105393    1.6314646186
H        1.6013481978   -3.1890189428    5.3581795756
H        1.5683496091   -1.4711727407    5.7528326965
H        0.1411331834   -2.2337284290    5.0050210436
H       -1.7617116204    0.1571199539   -2.5123384738
H       -0.0654507228    0.1628706950   -3.0131877506
H       -0.7779587184    1.6293639818   -2.2908927374
H        2.4951708554   -1.2957735633    1.3139667744
H        1.0581592629   -1.9993725413    0.5505178406
H       -0.0046187415   -1.6708604440    2.8394547292
25   
Generated by ForceBalance from scan.xyz: Frame 18 of 24
C        1.7953389561   -2.0025407822    3.7780167303
C        0.9714437581    0.4722802647   -0.4590040022
C       -1.1957057533    0.4106966933    0.2693691115
C        0.9932663932    0.2860739858    1.0591376371
C        1.0400528791   -2.3422745858    5.0534683357
C       -0.8113191531    0.2440918767   -2.1350551275
C        1.5947672468   -1.0568562439    1.5011587565
N       -0.3375995164   -0.0846125289   -0.7991632536
N        1.0350870663   -1.4907304241    2.7646130832
O        3.0088560029   -2.1892861919    3.6762600838
O       -0.4012377867    0.3616411811    1.4512758654
H        1.0528146334    1.5429414612   -0.7219673626
H        1.7745271655   -0.0725291319   -0.9653626995
H       -1.5208498507    1.4565400918    0.0945844884
H       -2.0788565354   -0.2248101167    0.3967836034
H        1.5107593608    1.1050159759    1.5688320174
H        1.1391720229   -3.4144911923    5.2443668059
H        1.5100169784   -1.8159265608    5.8883822847
H       -0.0221581862   -2.0837192275    5.0180567475
H       -1.8006182957   -0.1965688346   -2.2949056559
H       -0.1316528399   -0.1803549307   -2.8795860312
H       -0.8830980972    1.3337244920   -2.3105888747
H        2.6730595566   -0.9443131074    1.6437141137
H        1.4655086471   -1.8050365003    0.7080848221
H        0.0527633179   -1.2966074721    2.9098544529
25   
Generated by ForceBalance from scan.xyz: Frame 19 of 24
C        1.6812120087   -2.0329790962    3.6261756768
C        0.9411872747    0.5520060345   -0.5352497400
C       -1.1598116086    0.5098805924    0.3612039592
C        1.0880112752    0.5530291876    0.9859677353
C        0.8341634014   -2.4394179361    4.8221384514
C       -0.9436451960    0.0002148882   -2.0162009838
C        1.7557976018   -0.7265891734    1.5422049209
N       -0.3571063300   -0.1021490472   -0.6886599674
N        1.0773962333   -1.2029452440    2.7290808744
O        2.8384705499   -2.4327086809    3.4837341350
O       -0.2737719805    0.6865533243    1.4669848551
H        0.9385140683    1.5863126758   -0.9265958486
H        1.7306923495   -0.0114029706   -1.0414245747
H       -1.5587480099    1.5001702063    0.0630852381
H       -1.9910006490   -0.1404904609    0.6558706629
H        1.6282688023    1.4341261491    1.3435742010
H        0.7187635028   -3.5269097394    4.8175751359
H        1.3686682771   -2.1704260590    5.7370750702
H       -0.1563974210   -1.9756938126    4.8364688874
H       -1.9167760498   -0.5009933822   -2.0295181146
H       -0.2979847017   -0.5034680944   -2.7412270106
H       -1.0865644365    1.0465805103   -2.3444191656
H        2.7939296372   -0.5029156494    1.8080315522
H        1.8169212707   -1.4965985896    0.7625052736
H        0.1253606554   -0.8865447593    2.8615016453
25   
Generated by ForceBalance from scan.xyz: Frame 20 of 24
C        1.5969059897   -2.0562027062    3.4762101747
C        0.9844656875    0.5135573936   -0.5398463513
C       -1.0542988214    0.5656234467    0.4869399704
C        1.2278512928    0.7329508334    0.9546430604
C        0.6416122003   -2.5498514080    4.5519042996
C       -0.9728259632   -0.2816666399   -1.7995954124
C        1.9548514621   -0.4509081074    1.6543928579
N       -0.3017962843   -0.1782281101   -0.5128871327
N        1.1486184991   -1.0192011304    2.7171006881
O        2.7050131530   -2.5691882394    3.3034327253
O       -0.1031377615    0.9366547626    1.4871409795
H        0.9275902463    1.4838928011   -1.0685622265
H        1.7547592242   -0.0991647747   -1.0160171306
H       -1.5103384217    1.4875953097    0.0746514968
H       -1.8381618534   -0.0550744561    0.9362399195
H        1.7811714273    1.6578974384    1.1368609270
H        0.4026956906   -3.5986370306    4.3545230143
H        1.1487375692   -2.5053783198    5.5193905070
H       -0.2886253333   -1.9770659421    4.6086518335
H       -1.9306630302   -0.7971601916   -1.6764198717
H       -0.3600216825   -0.8740374704   -2.4848971379
H       -1.1646630557    0.7030283930   -2.2651238125
H        2.9055634148   -0.0996238040    2.0712520344
H        2.2177189039   -1.2245072276    0.9252842041
H        0.2415624159   -0.5983790056    2.8716645955
25   
Generated by ForceBalance from scan.xyz: Frame 21 of 24
C        0.5580135904   -3.0326580774   -0.6249598362
C        0.8842044264    0.8651860326   -0.3262050761
C       -1.3404799232    0.3740353425   -0.2513113538
C        0.6322361946    0.0749495134    0.9655425456
C       -0.6374443229   -3.8536736158   -1.0789815840
C       -0.4390445729    1.1604440810   -2.3791945719
C        1.3147679748   -1.3256134045    0.9777532202
N       -0.2130882429    0.3924878239   -1.1663199724
N        0.3996529281   -2.3821870996    0.5740136433
O        1.5914401046   -2.9765540651   -1.2901318908
O       -0.8077862457   -0.0517633057    1.0008968980
H        0.8211951517    1.9535905815   -0.1322626475
H        1.8516857019    0.6461975084   -0.7845636623
H       -1.8003483890    1.3750990001   -0.1212771606
H       -2.1097978056   -0.3343297952   -0.5812999926
H        0.9394903946    0.6417829234    1.8493124171
H       -1.0692224542   -3.3685782717   -1.9600329887
H       -0.2949750446   -4.8457616694   -1.3817920942
H       -1.4131747616   -3.9564522566   -0.3146557616
H       -1.2894239208    0.7427429098   -2.9279301126
H        0.4413657020    1.0900528030   -3.0238965785
H       -0.6439615345    2.2294678557   -2.1808882482
H        1.7244958667   -1.5423810045    1.9697104136
H        2.1148865781   -1.3650707361    0.2365728589
H       -0.5419184762   -2.3013363260    0.9367389652
25   
Generated by ForceBalance from scan.xyz: Frame 22 of 24
C        0.6263741570   -2.9977649716   -0.6097079443
C        0.9226931524    0.4567478720   -0.3933571294
C       -1.3299619271    0.3158511090   -0.0955354830
C        0.6727757937   -0.1016678401    1.0228231882
C       -0.5385502434   -3.7312759388   -1.2480563291
C       -0.5204363136    0.7778468927   -2.3528014616
C        1.2631657400   -1.5151406606    1.2379252354
N       -0.3044340147    0.0785546376   -1.0964408690
N        0.4014535163   -2.5460269135    0.6708864466
O        1.6917111291   -2.8279997564   -1.2020333027
O       -0.7705050752   -0.1528078705    1.1235104580
H        1.0473481979    1.5556435666   -0.3556688948
H        1.7968295313    0.0170685089   -0.8781977436
H       -1.5853871717    1.3919868797    0.0017439716
H       -2.2425050995   -0.2517845809   -0.3096100642
H        1.0577815152    0.5775627700    1.7912415862
H       -1.0729565546   -3.0179742147   -1.8845284585
H       -0.1560963722   -4.5336467406   -1.8813186931
H       -1.2397311577   -4.1428571356   -0.5161482230
H       -1.4700556534    0.4591916643   -2.7952780913
H        0.2793177820    0.5209118321   -3.0528049571
H       -0.5427762668    1.8777350218   -2.2354586473
H        1.4324087369   -1.7160451164    2.2994844658
H        2.1921368525   -1.6144445242    0.6735915782
H       -0.5670643216   -2.4980021746    0.9636198762
25   
Generated by ForceBalance from scan.xyz: Frame 23 of 24
C        0.7030264244   -2.9772878378   -0.6179259626
C        0.9150750780    0.3390944202   -0.4663543078
C       -1.3163429167    0.4404620423   -0.0079545305
C        0.7092278126   -0.0978401600    0.9985421185
C       -0.4070012122   -3.7158156624   -1.3425861958
C       -0.6280800278    0.7300105196   -2.3332719780
C        1.1977093445   -1.5220866221    1.3042541327
N       -0.3927388072    0.0585438887   -1.0648237074
N        0.3805446165   -2.5293869004    0.6406082245
O        1.8092283071   -2.7986533674   -1.1289043804
O       -0.7254577824   -0.0417378886    1.1899613359
H        1.1582344760    1.4171649044   -0.5107051613
H        1.7018959606   -0.2252391100   -0.9706948510
H       -1.4494236877    1.5410229511    0.0557099130
H       -2.2960485724   -0.0327282957   -0.1359531015
H        1.1888384541    0.6036977478    1.6914604632
H       -0.9019779790   -3.0031348428   -2.0105089390
H        0.0274162794   -4.5114803733   -1.9502308632
H       -1.1550269754   -4.1375106064   -0.6648613854
H       -1.6326747724    0.4916140798   -2.6982314111
H        0.0931210759    0.3715572437   -3.0730668692
H       -0.5357315927    1.8301976654   -2.2620394620
H        1.1885065543   -1.7029146370    2.3833192579
H        2.2095031664   -1.6553288344    0.9161752369
H       -0.6061178647   -2.4917599603    0.8654880762
25   
Generated by ForceBalance from scan.xyz: Frame 24 of 24
C        0.7477906710   -3.0480023848   -0.5566455779
C        0.8170473830    0.2497970609   -0.4750711389
C       -1.3563384265    0.5968970983    0.1300615782
C        0.6688386109   -0.1072967487    1.0163322132
C       -0.2919130677   -3.7838530076   -1.3831498248
C       -0.8052830162    0.7601664859   -2.2431466684
C        1.0471914134   -1.5447291163    1.3790415857
N       -0.5526733637    0.0928685738   -0.9752568859
N        0.2846611520   -2.5286370460    0.6260461202
O        1.9153913841   -2.9260469992   -0.9303089778
O       -0.7399776901    0.0799265766    1.2996237599
H        1.1699929265    1.2921320211   -0.5809603509
H        1.5081821895   -0.4113170422   -1.0014917776
H       -1.3648099047    1.7066970248    0.1670576228
H       -2.3875919653    0.2314274540    0.0805142700
H        1.2492464005    0.5783270815    1.6462319855
H       -0.7364694953   -3.0707892121   -2.0857056522
H        0.1980117097   -4.5730572664   -1.9553310923
H       -1.0928413435   -4.2130188831   -0.7740017868
H       -1.8498183526    0.6140537417   -2.5376975458
H       -0.1715748841    0.3208905833   -3.0188446368
H       -0.6029023630    1.8471276622   -2.2057962921
H        0.8701018858   -1.6987921523    2.4485863510
H        2.1062562568   -1.7149353476    1.1753995544
H       -0.7203438582   -2.4650725535    0.7317873372
