24   

C       -4.2534856540   -1.0923229524    5.2354983496
C       -4.4072096292   -0.5769524911    3.9335700552
C       -2.0772034212   -1.5831330927    4.7813888354
C       -2.2078635639   -1.0693904004    3.4642397714
C       -1.1513787710   -0.5771747403    1.2116694518
C       -0.0365808365   -0.5511808993    0.4173173485
C       -1.0318912658   -1.0975458541    2.5615122465
C       -0.9539148390    0.9614642731   -1.2966664958
C        1.3946667281    0.0113750200   -1.4857829962
N       -3.0894700870   -1.6007577737    5.6753565443
N       -3.4001018916   -0.5586873793    3.0426399845
N        0.1311845658    0.1350126058   -0.7389896955
O        0.0352560600   -1.5613268251    2.9578165530
H       -5.1062357114   -1.0767126575    5.9038392503
H       -5.3716273567   -0.1805620179    3.6384570546
H       -1.1226703419   -1.9852367632    5.1009317138
H       -2.0825128755   -0.1364326688    0.8857114374
H        0.8384263760   -1.0821133577    0.7850215256
H       -1.3010856259    1.6870947006   -0.5542109961
H       -1.7912565988    0.3273654100   -1.6055262559
H       -0.6035607768    1.5169754769   -2.1723047869
H        1.2649382384   -0.6738416120   -2.3298111744
H        2.1932052237   -0.3740707494   -0.8437718147
H        1.7117719057    0.9887869403   -1.8625715183
24   

C       -4.2321424739   -1.0184427266    5.2397815935
C       -4.4227948690   -0.6467973248    3.8945176574
C       -2.0484089958   -1.4872971582    4.7980429059
C       -2.2158749388   -1.1168366936    3.4377660576
C       -1.2022955628   -0.8069492570    1.1327491529
C       -0.0831200804   -0.7225167118    0.3445910135
C       -1.0511098473   -1.1927808280    2.5234116666
C       -0.9490391722    0.9946898750   -1.1926814355
C        1.3969387792    0.0509077310   -1.4444447776
N       -3.0456821036   -1.4429524682    5.7078355179
N       -3.4306784338   -0.6903843216    2.9878239487
N        0.1175053245    0.0964684538   -0.7163210281
O        0.0386609279   -1.5742327841    2.9448468910
H       -5.0742131421   -0.9582913659    5.9190468562
H       -5.4038930185   -0.3126019006    3.5781378833
H       -1.0758850947   -1.8224544258    5.1397920910
H       -2.1488307146   -0.4115357829    0.7929741726
H        0.7926565071   -1.2635521596    0.6956741377
H       -1.3281556775    1.6080760233   -0.3690542740
H       -1.7709861697    0.4114470727   -1.6202229025
H       -0.5675315586    1.6690360732   -1.9658383352
H        1.2837159232   -0.5340501626   -2.3630184571
H        2.1796535406   -0.4090471162   -0.8327445504
H        1.7255164185    1.0626478563   -1.7017825781
24   

C       -4.1910310124   -0.9197599200    5.2363363616
C       -4.4145045547   -0.6940893517    3.8640309807
C       -1.9946548572   -1.3391838164    4.8070327178
C       -2.1950769946   -1.1150187989    3.4196162464
C       -1.2221540780   -0.9951239950    1.0789230888
C       -0.1104440819   -0.8616522626    0.2803462004
C       -1.0389014641   -1.2300990674    2.4984524936
C       -0.9411223462    1.0287807280   -1.0563587623
C        1.3948520304    0.0870428640   -1.4008613785
N       -2.9815100502   -1.2451280813    5.7244522737
N       -3.4328983281   -0.7875802741    2.9497693276
N        0.1101841978    0.0671360986   -0.6809429263
O        0.0735545884   -1.5155122302    2.9360134712
H       -5.0262892306   -0.8261649694    5.9202169699
H       -5.4128936736   -0.4342643504    3.5322632634
H       -1.0041253103   -1.5966879679    5.1640366224
H       -2.1866016748   -0.6547094244    0.7296504078
H        0.7679753203   -1.4144635869    0.6057983148
H       -1.3373559976    1.5289398851   -0.1668536508
H       -1.7552578361    0.5139850015   -1.5766043564
H       -0.5384717400    1.7984597165   -1.7223274439
H        1.2830277809   -0.3939978316   -2.3780427968
H        2.1681017179   -0.4446464096   -0.8371796017
H        1.7354261406    1.1170582451   -1.5452324273
24   

C       -4.1565261503   -0.8108313412    5.2137540501
C       -4.4051113904   -0.7371337150    3.8292982990
C       -1.9466873003   -1.1666301077    4.7954008687
C       -2.1723569541   -1.0950685530    3.3957721877
C       -1.2278250986   -1.1769450052    1.0417766891
C       -0.1363085179   -1.0005074660    0.2132370898
C       -1.0210837146   -1.2459163426    2.4735240764
C       -0.9492839442    1.0297638940   -0.9040002152
C        1.3673318097    0.0945289930   -1.3770899428
N       -2.9274530968   -1.0268640596    5.7136117765
N       -3.4297347368   -0.8769482126    2.9143539443
N        0.0891567358    0.0159717419   -0.6496483034
O        0.1106374968   -1.4230731166    2.9183162563
H       -4.9882023069   -0.6875977708    5.8973048686
H       -5.4182601468   -0.5595133306    3.4881697065
H       -0.9409978677   -1.3390679408    5.1611128118
H       -2.2124875300   -0.9074667750    0.6866319428
H        0.7474939473   -1.5657487864    0.5003815983
H       -1.3438943040    1.4192881139    0.0399288411
H       -1.7672122946    0.5943128726   -1.4868968324
H       -0.5343356682    1.8724201030   -1.4659602712
H        1.2361981104   -0.2658992494   -2.4025987762
H        2.1343541238   -0.5154513412   -0.8893145760
H        1.7283939615    1.1273399074   -1.4033773608
24   

C       -4.1297847199   -0.7228385985    5.1690104239
C       -4.3950059496   -0.8062330710    3.7882681405
C       -1.9052516370   -0.9787856331    4.7545483724
C       -2.1476243297   -1.0648803741    3.3586389199
C       -1.2183900738   -1.3388691455    1.0146078211
C       -0.1552188538   -1.1293624677    0.1424300428
C       -0.9971777362   -1.2357045441    2.4386459039
C       -0.9375113641    1.0225802321   -0.7297320983
C        1.3308656504    0.0748671945   -1.3800178067
N       -2.8848279971   -0.8085912210    5.6689833420
N       -3.4208550072   -0.9768354868    2.8773511566
N        0.0728800027   -0.0445770503   -0.6234618472
O        0.1485335982   -1.2880589372    2.8791927675
H       -4.9616071746   -0.5835344435    5.8492902695
H       -5.4204108910   -0.7281156643    3.4464197313
H       -0.8872909730   -1.0497435677    5.1200492769
H       -2.2231891907   -1.1604120054    0.6581692604
H        0.7284320439   -1.7212998940    0.3689362827
H       -1.2951923182    1.3128426486    0.2634131782
H       -1.7840729272    0.6823913287   -1.3346117007
H       -0.5085962160    1.9117187164   -1.2025207999
H        1.1547964164   -0.1550889689   -2.4358913793
H        2.0876468605   -0.6163766847   -0.9956166593
H        1.7314177894    1.0898695561   -1.2957970274
24   

C       -4.1395157966   -0.9097263301    5.3196936547
C       -4.4542649275   -1.3093724269    4.0063011281
C       -2.1238627412   -0.1347445391    4.5978061889
C       -2.4162098183   -0.5333562185    3.2668674010
C       -1.6524061687   -0.7380593230    0.8556710597
C       -0.5977991070   -0.9828354996   -0.0419927085
C       -1.3905066287   -0.3283084912    2.2149040421
C       -0.2483139560    1.3597710922   -0.6107734803
C        0.9704933286   -0.4927034566   -1.8448083069
N       -2.9749383439   -0.3149792528    5.6310977302
N       -3.6099295208   -1.1255808118    2.9760226173
N       -0.0331895475   -0.0787168568   -0.8505829540
O       -0.2998907034    0.1556644285    2.5055159335
H       -4.8638120387   -1.0913494847    6.1048800136
H       -5.4090940291   -1.7864648660    3.8190816348
H       -1.1700479918    0.3330241546    4.8130393892
H       -2.5795507221   -1.2679012293    0.6872113579
H       -0.4879841843   -2.0189216322   -0.3486583278
H       -1.3166232680    1.5782060927   -0.5149784545
H        0.1385773751    1.9495167194   -1.4475948620
H        0.2673494943    1.6726916091    0.3029009542
H        0.7432381367   -0.0480005881   -2.8187056009
H        0.9815791367   -1.5807242464   -1.9641235071
H        1.9675887770   -0.1717462107   -1.5261626591
24   

C       -4.0864046626   -0.8307845401    5.3035168692
C       -4.4016990294   -1.3390152449    4.0283445925
C       -2.1120441148   -0.0356612235    4.4952328699
C       -2.4053864501   -0.5424363340    3.2014541279
C       -1.6704110245   -0.8971669345    0.8017764989
C       -0.6427459250   -1.0746836508   -0.1276012808
C       -1.4059907922   -0.3667819504    2.1185802547
C       -0.2828615599    1.3211281967   -0.5255887976
C        0.9837956334   -0.4431928968   -1.8309052316
N       -2.9418905872   -0.1713737348    5.5522651396
N       -3.5780220460   -1.2012190606    2.9743731363
N       -0.0356841461   -0.1021281923   -0.8251401556
O       -0.3404370616    0.1935409076    2.3611028539
H       -4.7935443064   -0.9796223154    6.1109222876
H       -5.3402197770   -1.8632335019    3.8915584238
H       -1.1754007159    0.4839907746    4.6612734657
H       -2.5507177230   -1.5166616733    0.7010360054
H       -0.5777173099   -2.0690172609   -0.5595768572
H       -1.3429423754    1.4970348038   -0.3175991147
H       -0.0085593354    1.9437767463   -1.3827193152
H        0.3121460192    1.6375826955    0.3367838975
H        0.8043005409    0.1123747734   -2.7566407195
H        0.9610649729   -1.5113218587   -2.0689832940
H        1.9803512873   -0.1960688089   -1.4506511909
24   

C       -4.0703686079   -0.7897677510    5.2711391589
C       -4.3643918028   -1.3798882426    4.0265712388
C       -2.1193412632    0.0206949004    4.4225997887
C       -2.3916650289   -0.5674559157    3.1587305445
C       -1.6434146842   -1.0349694144    0.7869596276
C       -0.6717114441   -1.1362251631   -0.2011565663
C       -1.3992329374   -0.4120430837    2.0656800810
C       -0.3063230322    1.2885295663   -0.4851576379
C        0.9921750375   -0.4174753292   -1.8291129784
N       -2.9480987198   -0.0816024583    5.4842519866
N       -3.5414007867   -1.2765939743    2.9681438066
N       -0.0237050764   -0.1245103156   -0.8044243313
O       -0.3601941502    0.2055411552    2.2813904192
H       -4.7759998001   -0.9138084775    6.0840349375
H       -5.2859069983   -1.9396232356    3.9178107534
H       -1.2012147693    0.5799901867    4.5608976756
H       -2.4817810368   -1.7154203695    0.7311906775
H       -0.6439638091   -2.0892403226   -0.7213058003
H       -1.3509383787    1.4229243679   -0.1878627380
H       -0.1335375264    1.9183493415   -1.3631743214
H        0.3463533677    1.6342744660    0.3224755688
H        0.8389011084    0.2145347535   -2.7094482605
H        0.9374196710   -1.4618848490   -2.1520939825
H        1.9928296378   -0.2332094210   -1.4248221638
24   

C       -4.0643145127   -0.7850972475    5.2647070056
C       -4.3172462854   -1.4487084499    4.0485019702
C       -2.1369402478    0.0620929809    4.3981950318
C       -2.3687831650   -0.5981397202    3.1619689432
C       -1.5839466990   -1.1410987087    0.8205544347
C       -0.6917623998   -1.1569314940   -0.2359213362
C       -1.3770794820   -0.4434855110    2.0676102065
C       -0.3212372221    1.2827375100   -0.4374767027
C        0.9796203499   -0.3796697719   -1.8268351496
N       -2.9743890336   -0.0220292575    5.4546359009
N       -3.4851513758   -1.3646165050    2.9955403435
N       -0.0133507653   -0.1221979762   -0.7701481082
O       -0.3744900897    0.2368765228    2.2639892711
H       -4.7758568633   -0.8961230067    6.0743233872
H       -5.2142934352   -2.0498156822    3.9574209961
H       -1.2457507829    0.6673191454    4.5180164690
H       -2.3750424062   -1.8778819449    0.8005964041
H       -0.6999247187   -2.0716889829   -0.8213986952
H       -1.3525305429    1.3874050211   -0.0867787552
H       -0.2128117252    1.9162939316   -1.3229978295
H        0.3619947738    1.6491692202    0.3350786886
H        0.8487859400    0.3237987843   -2.6550936466
H        0.8747658381   -1.3921543036   -2.2293224036
H        1.9908502133   -0.2709982764   -1.4216025409
24   

C       -4.0802212995   -0.7798073674    5.2845738241
C       -4.2723101502   -1.5103706442    4.0959857200
C       -2.1776479514    0.1225530927    4.4189345243
C       -2.3491818216   -0.6031332334    3.2096902770
C       -1.4985354885   -1.1997773682    0.9056888591
C       -0.6867210470   -1.1501980025   -0.2079793935
C       -1.3497780076   -0.4371435998    2.1234417667
C       -0.2497608387    1.2842183020   -0.3635979089
C        0.9918123800   -0.3811947355   -1.7937964939
N       -3.0332415807    0.0440953047    5.4612015092
N       -3.4215801368   -1.4329589842    3.0575357119
N        0.0381600647   -0.1236503713   -0.7009454782
O       -0.3945452381    0.3106717134    2.3071597815
H       -4.8045333508   -0.8880722954    6.0831641880
H       -5.1371081698   -2.1582672997    4.0142960478
H       -1.3217075212    0.7785383846    4.5280237483
H       -2.2439352274   -1.9830176241    0.9122311601
H       -0.7390924362   -2.0376392322   -0.8320240484
H       -1.2720548612    1.3979753989    0.0098886946
H       -0.1559837072    1.9163006068   -1.2518251933
H        0.4548294740    1.6457077722    0.3919959555
H        0.8280049691    0.3192963289   -2.6187869548
H        0.8769390777   -1.3953576348   -2.1893287856
H        2.0171384191   -0.2688591451   -1.4269923890
24   

C       -4.1093645357   -0.8452452478    5.2762987201
C       -4.2331340683   -1.6264602571    4.1111384452
C       -2.2482144644    0.1417945798    4.4131057309
C       -2.3521268040   -0.6327475405    3.2264675668
C       -1.4375818495   -1.2360624583    0.9483084519
C       -0.7074214669   -1.1301505869   -0.2149245612
C       -1.3507522965   -0.4327926589    2.1469945195
C       -0.1227197044    1.2774818885   -0.3201622056
C        0.9586053208   -0.4134443242   -1.8363337034
N       -3.1174734859    0.0461252873    5.4425509768
N       -3.3684470888   -1.5324039194    3.0856716460
N        0.0783114649   -0.1372382502   -0.6875251050
O       -0.4528967586    0.3840319730    2.3214935360
H       -4.8421922517   -0.9693796107    6.0647468463
H       -5.0557560325   -2.3279460952    4.0367852131
H       -1.4375923532    0.8542781154    4.5135388107
H       -2.1425362548   -2.0556083578    0.9707253374
H       -0.8189087081   -1.9917207041   -0.8669461508
H       -1.1367003034    1.4446555277    0.0560318086
H        0.0087664290    1.9215618947   -1.1949448595
H        0.6048474912    1.5799929629    0.4395922947
H        0.7075071084    0.2417596773   -2.6765771367
H        0.8569148519   -1.4493906522   -2.1750441347
H        2.0031784842   -0.2498407515   -1.5527706059
24   

C       -4.1610837126   -1.0384395186    5.2441582310
C       -4.0862427364   -1.9025478913    4.1351226194
C       -2.6517481481    0.3524624180    4.2581088181
C       -2.5567353921   -0.5028590021    3.1272736960
C       -1.5270759145   -0.9974824839    0.8717003549
C       -0.7970772749   -0.9363281863   -0.3019619378
C       -1.6409912070   -0.1278209898    2.0157443199
C        0.3772245029    1.2555165275   -0.2984934977
C        0.6942987433   -0.4091347237   -2.1546194005
N       -3.4475825625    0.0978873751    5.3195852051
N       -3.2958207342   -1.6493590744    3.0774555350
N        0.0823792326   -0.0751386148   -0.8552301653
O       -0.9877854739    0.9032441977    2.1186403307
H       -4.8183504619   -1.3025936198    6.0641072642
H       -4.6863253441   -2.8049309732    4.1331545003
H       -2.0612865157    1.2608210992    4.2886811860
H       -2.1367230797   -1.8886489968    0.9241436046
H       -0.9811686795   -1.8191573222   -0.9074529410
H        0.9059504406    1.8693716043   -1.0338348938
H        1.0159564811    1.1665839554    0.5855440462
H       -0.5467655435    1.7859047520   -0.0541205951
H        0.5012091527    0.3888136093   -2.8789115722
H        0.2836768738   -1.3370238594   -2.5651108954
H        1.7754196965   -0.5353534891   -2.0388539341
24   

C       -4.0074923961   -0.9153645071    5.3366092072
C       -3.7832867332   -1.9201789477    4.3757304257
C       -2.9580089350    0.5962975099    3.9962060370
C       -2.7172640558   -0.3996912687    3.0118847938
C       -1.7574556139   -1.0296602556    0.7596176500
C       -1.0039566311   -0.9402337189   -0.3901528568
C       -1.9841780122   -0.0257730684    1.7746067114
C        0.7454253573    0.7197443955    0.1865072880
C        0.3726773546   -0.0398029124   -2.1824466893
N       -3.5996116766    0.3528379834    5.1596458043
N       -3.1447471138   -1.6792436746    3.2171381089
N       -0.0712110578   -0.0422867246   -0.7774563231
O       -1.6250541766    1.1381331632    1.6327502475
H       -4.5272442525   -1.1777325442    6.2504570803
H       -4.1364931840   -2.9246412380    4.5772711727
H       -2.6127558600    1.6090609530    3.8231769909
H       -2.2746792470   -1.9698468185    0.8924153471
H       -1.1830683933   -1.7592522706   -1.0807989365
H        1.7825284350    0.7821664585   -0.1568412395
H        0.7568336173    0.2292338573    1.1647220116
H        0.3580866713    1.7381075675    0.2913752952
H        0.1518627885    0.9293815797   -2.6409533715
H       -0.1388629206   -0.8145500138   -2.7623910321
H        1.4491040198   -0.2292944244   -2.2436886392
24   

C       -3.9780400246   -0.9010958994    5.3082203605
C       -3.6838506493   -1.9395497957    4.4035305402
C       -2.9952159635    0.5969957070    3.9035756433
C       -2.6863376129   -0.4327121981    2.9747982318
C       -1.6850483990   -1.1161754510    0.7567956178
C       -1.0075441760   -0.9746170104   -0.4359365312
C       -1.9688567400   -0.0803336883    1.7229003558
C        0.8102078758    0.5707731849    0.2341344305
C        0.3965197020   -0.0232808091   -2.1818587800
N       -3.6385181138    0.3773875153    5.0708041966
N       -3.0433726419   -1.7223902502    3.2412977577
N       -0.0246743276   -0.1127598080   -0.7730684033
O       -1.6758015418    1.0935283515    1.5189174799
H       -4.4966082580   -1.1451754812    6.2277901006
H       -3.9836866984   -2.9506830163    4.6525749447
H       -2.7066598129    1.6177117763    3.6805732818
H       -2.1603593278   -2.0736869953    0.9192461384
H       -1.2270041165   -1.7517919438   -1.1622697027
H        1.8552516582    0.5948470708   -0.0892439032
H        0.7787219060    0.0449150545    1.1933037373
H        0.4694542167    1.6014710509    0.3740837402
H        0.0951886867    0.9427253193   -2.5995834409
H       -0.0600997639   -0.8157902899   -2.7831841371
H        1.4831674410   -0.1257257221   -2.2644927664
24   

C       -3.9595576818   -0.8557401592    5.3282008826
C       -3.5981245649   -1.9146232356    4.4728334929
C       -3.0232292892    0.6301671725    3.8795273724
C       -2.6488404465   -0.4201004736    2.9993540236
C       -1.5889240426   -1.1393006235    0.8193245903
C       -1.0172925371   -0.9482983975   -0.4253713325
C       -1.9398225760   -0.0829904797    1.7389328737
C        0.8515561334    0.5268297738    0.2534500151
C        0.3847612699    0.0027013495   -2.1741535611
N       -3.6765227616    0.4270256428    5.0441705341
N       -2.9464097400   -1.7139274158    3.3138731659
N        0.0032157822   -0.1335389960   -0.7582619303
O       -1.7101242696    1.0949802261    1.4815059149
H       -4.4848282584   -1.0870714595    6.2472629218
H       -3.8549792508   -2.9280949860    4.7578208269
H       -2.7818385868    1.6539060676    3.6176769624
H       -2.0062958006   -2.1166291994    1.0186004129
H       -1.2943450003   -1.6897657887   -1.1690777386
H        1.8915632403    0.5605514111   -0.0850001340
H        0.8350610852   -0.0219875930    1.2000437178
H        0.5106571158    1.5526906938    0.4246710622
H        0.0571799220    0.9751139169   -2.5558703524
H       -0.0745282184   -0.7813994958   -2.7843636365
H        1.4703049964   -0.0788953882   -2.2879057360
24   

C       -3.9707550101   -0.8505139867    5.3386710916
C       -3.5333364560   -1.9131825845    4.5244016266
C       -3.0766841861    0.6402246260    3.8683756825
C       -2.6277509618   -0.4138374304    3.0288322222
C       -1.4873712244   -1.1348547852    0.8876276936
C       -1.0306995169   -0.9030799689   -0.4034627538
C       -1.9192635627   -0.0760583985    1.7687748210
C        0.8846051270    0.5202802677    0.2307843312
C        0.3630330949   -0.0056882797   -2.1889448409
N       -3.7467258695    0.4366609874    5.0233761093
N       -2.8638385800   -1.7119241993    3.3757037871
N        0.0270637522   -0.1544699043   -0.7631780163
O       -1.7522937493    1.1034345060    1.4713380959
H       -4.5075438284   -1.0825429336    6.2508780483
H       -3.7455853045   -2.9301026606    4.8328633873
H       -2.8837947428    1.6671319361    3.5800234492
H       -1.8351864445   -2.1317282858    1.1205444627
H       -1.3833295438   -1.6092811528   -1.1494483571
H        1.9095533142    0.6010618850   -0.1438890589
H        0.9230698123   -0.0466349186    1.1660844986
H        0.5103932100    1.5283516910    0.4346333467
H        0.0772740304    0.9923725977   -2.5367020155
H       -0.1629789551   -0.7477504246   -2.7978371936
H        1.4374024537   -0.1454887389   -2.3442087359
24   

C       -4.0150636465   -0.8741926303    5.3464575285
C       -3.4928709544   -1.9224601859    4.5640401751
C       -3.1631247329    0.6426120806    3.8776628134
C       -2.6304435776   -0.3968421983    3.0699075743
C       -1.3889933995   -1.0804451659    0.9687662336
C       -1.0378564453   -0.8233023927   -0.3585044527
C       -1.9153736038   -0.0392283091    1.8196601056
C        0.9333996541    0.5338025151    0.1897046594
C        0.3413830878   -0.0338137971   -2.2078851401
N       -3.8547176213    0.4187882775    5.0160951884
N       -2.8010043365   -1.7007213694    3.4325029017
N        0.0577879911   -0.1661547357   -0.7693851303
O       -1.8121153101    1.1408135522    1.4955993270
H       -4.5663565008   -1.1226741043    6.2455882582
H       -3.6570707353   -2.9450876474    4.8828101356
H       -3.0214615056    1.6740059274    3.5759025026
H       -1.6557103515   -2.0951705464    1.2296317014
H       -1.4862704265   -1.4872823523   -1.0917077609
H        1.9240674565    0.6946538494   -0.2465420545
H        1.0674881622   -0.0596401245    1.0995521955
H        0.5085597538    1.5076118483    0.4525094633
H        0.1341003781    0.9898625243   -2.5363791175
H       -0.2791144189   -0.7167823932   -2.7966418280
H        1.3902623588   -0.2711929338   -2.4112618129
24   

C       -4.0763224634   -0.9510720858    5.3574293807
C       -3.4489107787   -1.9578943065    4.5981895834
C       -3.3017011097    0.6225928894    3.9054900007
C       -2.6648684000   -0.3748473319    3.1210722234
C       -1.3085930983   -0.9621513571    1.0583168571
C       -1.0323479562   -0.7064833314   -0.2967186934
C       -1.9521130029    0.0311661123    1.8850022836
C        1.0140002596    0.5439502139    0.1305217638
C        0.3156600483   -0.0753630980   -2.2292633483
N       -4.0076403589    0.3493823038    5.0242009312
N       -2.7414527290   -1.6864347435    3.4873501836
N        0.0921035585   -0.1630569018   -0.7768243905
O       -1.9406241966    1.2099623006    1.5408542906
H       -4.6348844367   -1.2390521054    6.2401441727
H       -3.5429884968   -2.9892504613    4.9172840163
H       -3.2330208510    1.6603290615    3.6000693948
H       -1.4574128445   -1.9930614561    1.3477741519
H       -1.6007889702   -1.3062616295   -1.0015009435
H        1.9518898557    0.7779158695   -0.3826817808
H        1.2549916333   -0.0801294376    0.9969060426
H        0.5628852345    1.4803008960    0.4745738220
H        0.2034233302    0.9612312433   -2.5633658985
H       -0.4037543141   -0.6925166447   -2.7767236970
H        1.3216735459   -0.4270601785   -2.4785110019
24   

C       -3.8459957671   -0.9261588120    5.3568793644
C       -2.9461277336   -1.7534253970    4.6571497920
C       -4.0507563046    0.4018377723    3.5183196787
C       -3.1457329442   -0.4164777438    2.7930398297
C       -1.8982447211   -0.8740691575    0.6325614903
C       -1.3021433039   -0.3520241987   -0.5107160412
C       -2.8067528553   -0.0504125972    1.3965498142
C        0.9575222377   -0.1697662018    0.4189531796
C        0.4000240905    0.7271069315   -1.8943448756
N       -4.4092206355    0.1589775303    4.7978686117
N       -2.5895972212   -1.5132824762    3.3831500155
N       -0.0270937566    0.0595036147   -0.6529545642
O       -3.2925818695    0.9538658209    0.8818880480
H       -4.0897058550   -1.1761111909    6.3826696992
H       -2.5236535866   -2.6134653176    5.1633736156
H       -4.4828841221    1.2702305386    3.0345531552
H       -1.3954396484   -1.6724985286    1.1600229200
H       -2.0036208946    0.0847142439   -1.2176270204
H        1.2271997343   -1.2297362968    0.4637933722
H        0.5512180172    0.1420353485    1.3865390189
H        1.8665426830    0.4118911417    0.2361366173
H        1.0313032667    1.5911257220   -1.6647291636
H       -0.4629021391    1.0854287556   -2.4646645141
H        0.9633614251    0.0270795519   -2.5199337610
24   

C       -3.9507506508   -0.9758056722    5.3483137414
C       -2.9334061104   -1.7095245862    4.7075867081
C       -4.2201655032    0.2848857401    3.4712407839
C       -3.1971801626   -0.4395443322    2.8051817841
C       -1.7983620649   -0.7910668878    0.7179543541
C       -1.2554028616   -0.2463725925   -0.4298881545
C       -2.8383411926   -0.0645586309    1.4161157633
C        1.0814989735   -0.2562030136    0.3249114520
C        0.4147047084    0.7616997604   -1.9076375586
N       -4.6063787685    0.0277447097    4.7398375750
N       -2.5488159001   -1.4550441694    3.4445512858
N        0.0357580774    0.0866061450   -0.6547459977
O       -3.4149775989    0.8648236757    0.8559524972
H       -4.2107884064   -1.2318436900    6.3685782484
H       -2.4408842679   -2.5067903279    5.2518165524
H       -4.7243042169    1.0898918522    2.9490480630
H       -1.2344448386   -1.5259369793    1.2749658140
H       -1.9758429379    0.2302429953   -1.0908482853
H        1.2637167966   -1.3356346136    0.3203450773
H        0.7822117960    0.0568574129    1.3303286832
H        2.0186893710    0.2539596308    0.0810750965
H        1.1363378126    1.5598266607   -1.7076480053
H       -0.4583449524    1.2133702442   -2.3894097973
H        0.8602374643    0.0404966036   -2.6005565583
24   

C       -4.0268657237   -1.0458538188    5.3525472544
C       -2.9124288785   -1.6762344900    4.7653935353
C       -4.3376590807    0.1690338043    3.4520985093
C       -3.2172658917   -0.4515925185    2.8398198137
C       -1.6902465153   -0.6684362830    0.8245126522
C       -1.2055934150   -0.1196954082   -0.3397044608
C       -2.8377482657   -0.0525357718    1.4631490945
C        1.1808708471   -0.3083843453    0.2266021474
C        0.4148167398    0.7712242770   -1.9435870717
N       -4.7526219251   -0.1179215960    4.7050317049
N       -2.4984647078   -1.3915007946    3.5181014457
N        0.0877957243    0.1209706189   -0.6632451466
O       -3.4875641497    0.8033291698    0.8667366889
H       -4.3058016454   -1.3208129384    6.3628448040
H       -2.3674453800   -2.4164927757    5.3393007285
H       -4.8968327478    0.9154601801    2.8997552347
H       -1.0792366028   -1.3488120429    1.4005198993
H       -1.9439893336    0.3757069757   -0.9661941690
H        1.2617241711   -1.4001475923    0.2255371771
H        1.0022483560    0.0416567885    1.2483368361
H        2.1358925670    0.1084673633   -0.1083902769
H        1.2183805794    1.5014516899   -1.8064094677
H       -0.4537170019    1.3019214684   -2.3465244117
H        0.7336657252    0.0199674466   -2.6734747613
24   

C       -4.1020086145   -1.1253180344    5.3346061362
C       -2.9029367281   -1.6437339508    4.8076817365
C       -4.4357245638    0.0490534318    3.4128233760
C       -3.2305498593   -0.4593836726    2.8608519906
C       -1.5919901629   -0.5338276721    0.9257402065
C       -1.1515387412   -0.0024913018   -0.2593363654
C       -2.8262820690   -0.0314188366    1.4999832321
C        1.2482018070   -0.3905934201    0.1312577902
C        0.4143618963    0.7300627710   -1.9916394392
N       -4.8823169488   -0.2747154413    4.6457055335
N       -2.4571827752   -1.3220160831    3.5804666720
N        0.1306334915    0.1237472106   -0.6797407314
O       -3.5314333488    0.7502130896    0.8655059545
H       -4.4028901877   -1.4247690865    6.3315534972
H       -2.3173705602   -2.3258445792    5.4128059923
H       -5.0379563321    0.7350002955    2.8282604915
H       -0.9497674429   -1.1671794411    1.5208472813
H       -1.8986590560    0.5064387543   -0.8641190172
H        1.2195188886   -1.4845409987    0.1630922035
H        1.1940334660    0.0045669701    1.1506914461
H        2.2076454225   -0.0841964518   -0.2972917098
H        1.2818684715    1.3940181809   -1.9253246943
H       -0.4357875328    1.3250916006   -2.3403027758
H        0.6175221682   -0.0530592823   -2.7293508913
24   

C       -4.2876192233   -1.1537683240    5.2364026033
C       -4.3654783027   -0.4344076200    4.0278009548
C       -2.1669726488   -1.7966583562    4.7140625283
C       -2.2217169242   -1.0788098121    3.4903033794
C       -1.0817599591   -0.3640804278    1.3403986046
C       -0.0069655727   -0.4473399251    0.4962869455
C       -1.0405879459   -1.0945406155    2.5940329725
C       -1.1367454989    0.4858263471   -1.4835074186
C        1.3048866844   -0.2126596634   -1.5555629992
N       -3.1902233390   -1.8425793216    5.5944124310
N       -3.3474458839   -0.3880140589    3.1504077157
N        0.0416192895   -0.0866183743   -0.8087986407
O       -0.0342095620   -1.7227766201    2.9156977339
H       -5.1450308728   -1.1496533313    5.8989228521
H       -5.2785097500    0.1012031392    3.7958240475
H       -1.2648798747   -2.3407848052    4.9691801666
H       -1.9844592895    0.1533841622    1.0490608643
H        0.8897360489   -0.9188729363    0.8916590703
H       -1.3798527507    1.4634065319   -1.0547277879
H       -1.9979426043   -0.1818676162   -1.3794353800
H       -0.9413639617    0.6194217222   -2.5521802655
H        1.1161318535   -0.6027237544   -2.5605937336
H        1.9899752318   -0.9028574413   -1.0528746396
H        1.7914910624    0.7648663892   -1.6354919130
24   

C       -4.2752364526   -1.1564910130    5.2388932134
C       -4.3921285157   -0.5143910683    3.9905817703
C       -2.1137181617   -1.6875894124    4.7603181916
C       -2.2075977469   -1.0471666068    3.4965854319
C       -1.1081744482   -0.3966032440    1.3068941756
C       -0.0100437265   -0.4225271490    0.4893267757
C       -1.0238906758   -1.0417877648    2.6034543446
C       -1.0194928692    0.8580490232   -1.3553293113
C        1.3436790773   -0.0572044730   -1.5146168654
N       -3.1373146476   -1.7495485492    5.6392802282
N       -3.3736410151   -0.4517003419    3.1147380493
N        0.1003436170    0.1199367658   -0.7447931056
O        0.0175912725   -1.5871876767    2.9624700425
H       -5.1355377156   -1.1711501851    5.8975063573
H       -5.3368379504   -0.0544631961    3.7254262345
H       -1.1799687315   -2.1565799224    5.0485648752
H       -2.0258347520    0.0857393343    1.0025768031
H        0.8708534491   -0.9387962225    0.8636140638
H       -1.3293243535    1.6845813879   -0.7078752815
H       -1.8686148524    0.1873961042   -1.5221931181
H       -0.7216736077    1.2788250901   -2.3209438077
H        1.1848558524   -0.7785420557   -2.3227133472
H        2.1525896439   -0.4258519765   -0.8756830684
H        1.6643231359    0.8978159801   -1.9425503441
