67

C      8.48918    0.68274    3.22791
C      1.92265   -1.88711    7.68052
C      7.48886    1.12997    4.10064
C      8.20892   -0.35153    2.33096
C      2.43168   -0.63307    7.31983
C      1.51183   -2.77677    6.68408
C      6.22139    0.54517    4.07539
C      6.93564   -0.93336    2.30761
C      2.52558   -0.27376    5.97394
C      1.61098   -2.41343    5.33582
C      5.93199   -0.49535    3.17937
C      2.11437   -1.16050    4.96728
C      1.22591    1.90124   -1.14919
C     -1.36531   -0.02191   -2.78174
C     -0.22093    0.99059   -2.95412
C     -0.94799    0.68673   -0.62189
C      0.92752    0.37938   -3.76344
C     -0.72156    2.29816   -3.58693
C     -1.55443    1.75756    0.28313
C     -0.47455   -0.54007    0.16601
C      2.09319    4.12949    0.88967
C      4.55993   -1.13571    3.17954
C      2.19602   -0.74958    3.51144
C      2.83650    1.99641    2.07199
C      3.41567    0.58929    1.89582
C      2.49626    2.66694    0.74551
N      0.12277    1.19759   -1.52599
N      3.48274   -0.14148    3.16690
O      2.00816    2.45012   -1.91913
O     -1.97992    0.31410   -1.54308
O      1.37619    1.90581    0.20579
H      9.47550    1.13949    3.24567
H      1.85179   -2.16835    8.72816
H      7.70005    1.93513    4.80040
H      8.97671   -0.70123    1.64523
H      2.75595    0.06260    8.09006
H      1.12144   -3.75489    6.95400
H      5.43811    0.89476    4.74191
H      6.72021   -1.73185    1.60035
H      2.93063    0.69278    5.68688
H      1.29918   -3.11392    4.56357
H     -2.12221    0.05765   -3.56472
H     -0.97673   -1.05002   -2.76129
H      1.72682    1.10331   -3.92179
H      0.54933    0.05208   -4.73863
H      1.34353   -0.49144   -3.24666
H      0.05615    3.06313   -3.53352
H     -1.61294    2.65881   -3.06468
H     -0.97819    2.13738   -4.63979
H     -1.80562    2.64360   -0.30532
H     -0.86822    2.03736    1.08160
H     -2.47329    1.35927    0.72244
H     -0.12841   -1.32209   -0.51557
H     -1.30398   -0.93520    0.75978
H      0.34649   -0.27255    0.83282
H      1.24192    4.23012    1.57135
H      2.92876    4.71193    1.29179
H      1.82138    4.54747   -0.08270
H      4.47712   -1.83969    2.33056
H      4.44434   -1.73136    4.09146
H      1.97126   -1.62081    2.86767
H      1.41199   -0.01223    3.30887
H      1.93103    1.96943    2.68873
H      3.56472    2.61212    2.61039
H      2.83412    0.02868    1.14420
H      4.43103    0.68124    1.50060
H      3.32721    2.57991    0.04062
