32

C      1.73676   -1.80161    0.29780
C      0.55730   -2.78290    0.22009
C      1.92888   -1.39917   -1.16920
C      0.83621   -3.56107   -1.08283
C      1.61939   -4.85805   -0.80507
C      4.34387   -8.85409   -3.27822
C      2.05330   -5.52290   -2.10782
C      3.52017   -7.57552   -3.42215
C      4.78868   -9.38005   -4.62547
N      1.63317   -2.63611   -1.93065
O      2.14380   -8.03843   -1.18494
O      4.25923   -6.61641   -1.04666
F      3.73322   -9.66166   -5.43428
F      5.56486   -8.48368   -5.28914
F      5.50947  -10.51700   -4.49567
S      3.02989   -7.00867   -1.76034
H      1.54078   -0.94232    0.94462
H      2.63257   -2.30680    0.67396
H      0.47753   -3.43667    1.09333
H     -0.38337   -2.22790    0.13010
H      1.23585   -0.58409   -1.42610
H      2.94615   -1.05162   -1.37744
H     -0.10113   -3.82638   -1.58852
H      0.99692   -5.54477   -0.22229
H      2.50925   -4.62360   -0.21276
H      3.75790   -9.63655   -2.79056
H      5.23928   -8.66991   -2.68005
H      1.19764   -5.85017   -2.70717
H      2.68291   -4.84200   -2.68652
H      4.09924   -6.77042   -3.87986
H      2.60306   -7.74898   -3.98978
H      1.14394   -2.41986   -2.79246
