32

C      0.72397   -1.15964    0.36230
C     -0.27950   -2.25752    0.75833
C      0.96066   -1.46103   -1.11952
C      0.12330   -3.47388   -0.11266
C      0.82230   -4.57244    0.70835
C      0.71160   -8.64296   -2.92363
C      1.57251   -5.60028   -0.14098
C      1.50672   -7.85142   -1.88662
C      1.51954   -9.79700   -3.47671
N      1.04401   -2.92985   -1.13948
O      0.14817   -5.62914   -2.42621
O     -0.63729   -7.09159   -0.48828
F      2.65948   -9.37352   -4.08269
F      1.89105  -10.66912   -2.50328
F      0.81245  -10.49514   -4.39364
S      0.46207   -6.49256   -1.26762
H      0.34649   -0.14863    0.53881
H      1.66204   -1.27474    0.91659
H     -0.26559   -2.48748    1.82804
H     -1.29631   -1.93976    0.50655
H      0.12162   -1.06885   -1.71870
H      1.88544   -1.01697   -1.50353
H     -0.76834   -3.90819   -0.57909
H      0.09576   -5.08031    1.35085
H      1.57504   -4.10782    1.35684
H      0.42620   -8.00167   -3.76058
H     -0.19731   -9.05563   -2.47950
H      2.31744   -5.10901   -0.77144
H      2.04436   -6.36389    0.48453
H      1.77686   -8.46805   -1.02668
H      2.40152   -7.39953   -2.32121
H      0.82503   -3.32374   -2.05081
