28   

C       -3.3211638830    4.3777547690    2.2439207674
C       -3.7904852128    3.1659426220    2.7566963605
C       -2.3300165999    4.3765762790    1.2590285927
C       -3.2713850145    1.9557804492    2.2825852787
C       -1.8018105877    3.1653661778    0.7966521330
C       -2.2641114281    1.9396938590    1.3025335613
C       -0.5315446173    0.3972595081    0.1308222595
C        0.5550277306   -0.2208939274    0.8478395311
C       -0.5199770938    0.0341626088   -1.3278069225
C       -1.7052720252    0.6891145939    0.8350892389
C        1.9100389415   -0.2984242856   -1.1906227363
C        0.6746867586   -0.9309501359   -3.2783729798
N        1.6950023069   -0.6096007739    0.2009470561
N        0.6614762536   -0.3978205022   -1.9208511539
O        0.4841702149   -0.4676317845    2.0390432414
O       -1.5565199837    0.0850703062   -1.9733747554
H       -3.7247866031    5.3154577171    2.6090918915
H       -4.5548750651    3.1625039655    3.5254645049
H       -1.9694152769    5.3145925365    0.8526191192
H       -3.6443613242    1.0259782884    2.6969658152
H       -1.0348592315    3.1790849134    0.0308056236
H       -2.0794437017   -0.1564212539    1.4029061181
H        2.3198317316    0.7129902154   -1.2857506818
H        2.6364304559   -1.0050822715   -1.6058348883
H        1.5986022498   -0.6445102183   -3.7906211916
H       -0.1602352692   -0.5409239273   -3.8693652820
H        0.6062349786   -2.0230875219   -3.2516281631
H        2.3583439382   -1.1332929164    0.7589270131
28   

C       -3.4678232443    4.3769209555    2.0371539595
C       -3.8199590203    3.2241959973    2.7433767346
C       -2.5585111687    4.2915341747    0.9797335734
C       -3.2647054153    1.9887815876    2.3910619731
C       -1.9924351143    3.0574326002    0.6389132704
C       -2.3346324603    1.8905729616    1.3412385514
C       -0.5676688164    0.3065544586    0.3024639628
C        0.4427270251   -0.4969321375    0.9442986431
C       -0.5892822519    0.1153714712   -1.1833444538
C       -1.7301788891    0.6159589429    0.9992064579
C        1.7743966155   -0.5733507940   -1.1151738411
C        0.4921785425   -0.6966798801   -3.2628269690
N        1.5216885768   -0.9664483629    0.2490675560
N        0.5312298087   -0.3854231924   -1.8378450571
O        0.3622550263   -0.8205260278    2.1165840215
O       -1.5894752725    0.4143961359   -1.8197989075
H       -3.8999620908    5.3338080833    2.3075707175
H       -4.5214145824    3.2867599346    3.5675887202
H       -2.2917455124    5.1813145065    0.4210160647
H       -3.5471626690    1.1071195298    2.9552342160
H       -1.2941244526    3.0042216382   -0.1887597635
H       -2.0053394417   -0.1314459379    1.7367438420
H        2.3550292992    0.3553870551   -1.1303652728
H        2.3657380136   -1.3555086018   -1.6030501248
H        0.9287503583    0.1246239846   -3.8396355472
H       -0.5341686750   -0.8591432484   -3.6078976638
H        1.0510139488   -1.6155158499   -3.4667059147
H        2.1315055676   -1.5911088863    0.7624909812
28   

C       -3.5031498701    4.3690639378    1.9197308590
C       -3.7844964603    3.2803972818    2.7479526067
C       -2.6365357586    4.2089281349    0.8358752013
C       -3.2018681901    2.0344169311    2.4903743633
C       -2.0414584825    2.9659760263    0.5896679074
C       -2.3132450257    1.8608503860    1.4140811042
C       -0.5585533986    0.2239358846    0.4581799466
C        0.4077219164   -0.6814282494    1.0302443789
C       -0.5737900502    0.1834651367   -1.0381814923
C       -1.6809349210    0.5709532910    1.1814983987
C        1.7468432728   -0.6454296573   -1.0253825592
C        0.4879606383   -0.4718199628   -3.1822184319
N        1.4589851656   -1.1509837259    0.2940789982
N        0.5251605071   -0.3124304203   -1.7321668720
O        0.3217817866   -1.0813358054    2.1784785087
O       -1.5479150144    0.5954202999   -1.6518951195
H       -3.9569718861    5.3339229536    2.1160918451
H       -4.4523126719    3.4010720321    3.5933627379
H       -2.4249849335    5.0474177976    0.1822951557
H       -3.4303118693    1.2043911656    3.1493748119
H       -1.3769112468    2.8612432041   -0.2600526127
H       -1.9101900833   -0.1069509505    1.9977230686
H        2.3833879805    0.2428463270   -0.9496885517
H        2.2936766330   -1.4125304051   -1.5839808857
H        0.9724134827    0.3814828996   -3.6670321621
H       -0.5408085033   -0.5449750125   -3.5497983383
H        1.0024682835   -1.3918200247   -3.4771181376
H        2.0441570160   -1.8344271091    0.7589871882
28   

C       -3.5262095164    4.3227256690    1.7806144783
C       -3.7447792955    3.2833783122    2.6862166863
C       -2.6839858370    4.1196172639    0.6854762335
C       -3.1256647708    2.0436687580    2.4929817637
C       -2.0526371046    2.8835172866    0.5021934299
C       -2.2646423990    1.8228452537    1.4018539458
C       -0.5523735902    0.1162681034    0.4755546056
C        0.3802278597   -0.8593732724    0.9866928832
C       -0.5681414297    0.1771205109   -1.0189372246
C       -1.6017219237    0.5333862538    1.2552839502
C        1.7287058272   -0.7162822511   -1.0552160627
C        0.4864054068   -0.3598579824   -3.1996817902
N        1.4106557990   -1.3189322670    0.2157032039
N        0.5235954318   -0.2932295363   -1.7422189755
O        0.2959643003   -1.3139893247    2.1145996458
O       -1.5427495012    0.6182213050   -1.6109290173
H       -4.0081599110    5.2828434299    1.9267674859
H       -4.3925401080    3.4372753290    3.5418014239
H       -2.5172646790    4.9204853588   -0.0257169077
H       -3.3078903331    1.2537790037    3.2129400546
H       -1.4012438813    2.7612597488   -0.3537993806
H       -1.7822797223   -0.0859587670    2.1282587844
H        2.3880876995    0.1449306633   -0.9017826425
H        2.2609752432   -1.4505893129   -1.6691761472
H        0.9657440415    0.5254734492   -3.6289382879
H       -0.5421915705   -0.4161261607   -3.5706826096
H        1.0061128622   -1.2557429472   -3.5537438264
H        1.9834877478   -2.0386133407    0.6394443269
28   

C       -3.6688426774    4.4605812251    1.7853427464
C       -3.7722259878    3.4535730639    2.7450985055
C       -2.8792936626    4.2555091882    0.6526955588
C       -3.0936893566    2.2434044051    2.5665667314
C       -2.1884054011    3.0495220073    0.4826727969
C       -2.2890529636    2.0153855379    1.4334058598
C       -0.6164262485    0.2767703450    0.4624806051
C        0.3039979106   -0.7456245335    0.9007773595
C       -0.6535541906    0.4281227142   -1.0242559032
C       -1.5706485656    0.7515161512    1.3198164504
C        1.6359704248   -0.4774718756   -1.1348716249
C        0.3829702447    0.0160635666   -3.2443210378
N        1.3110033997   -1.1766159096    0.0838950857
N        0.4324717314    0.0043579537   -1.7853097050
O        0.2428371606   -1.2517908863    2.0080815744
O       -1.6496413765    0.8628241712   -1.5835908773
H       -4.1970755494    5.3978143848    1.9196275597
H       -4.3770592204    3.6093422033    3.6312510695
H       -2.7972277132    5.0331407024   -0.0980083766
H       -3.1894264873    1.4797761200    3.3302805780
H       -1.5722232284    2.9439549216   -0.3995263127
H       -1.6697212931    0.1725777627    2.2326001016
H        2.2997923637    0.3653719597   -0.9134541529
H        2.1649555998   -1.1638976885   -1.8045487142
H        0.9072256936    0.8955298678   -3.6309734160
H       -0.6478122604    0.0346769164   -3.6126726923
H        0.8522002541   -0.8868313230   -3.6476473578
H        1.8885347594   -1.9186674151    0.4599618578
28   

C       -3.7083328352    4.4359222072    1.7478155308
C       -3.7111451476    3.4776589454    2.7605230099
C       -2.9767274731    4.2039054055    0.5825827613
C       -2.9931140205    2.2880632902    2.6008871026
C       -2.2460932258    3.0189838796    0.4302114228
C       -2.2496747969    2.0277833295    1.4321895253
C       -0.6369354768    0.2197057124    0.4523287466
C        0.2399049655   -0.8518594073    0.8647333438
C       -0.6443921047    0.4254178471   -1.0275293286
C       -1.4954000090    0.7808751293    1.3524531878
C        1.6222175026   -0.5371396027   -1.1272333967
C        0.4354199187    0.0846519816   -3.2405451779
N        1.2412638477   -1.2880655933    0.0436841784
N        0.4510190005    0.0131977637   -1.7821695320
O        0.1579566595   -1.3854008439    1.9578121096
O       -1.6349987585    0.8603586448   -1.5953532973
H       -4.2676576911    5.3570369048    1.8669297965
H       -4.2690211185    3.6549259227    3.6730766151
H       -2.9685434748    4.9458205631   -0.2076988120
H       -3.0135988289    1.5635946744    3.4073369688
H       -1.6711649265    2.9096917405   -0.4773209571
H       -1.5366031268    0.2500137009    2.2982232058
H        2.3035293475    0.2727525052   -0.8444225274
H        2.1497558933   -1.2039716672   -1.8175438304
H        0.9890876288    0.9659795548   -3.5789599062
H       -0.5852294151    0.1430623637   -3.6320567951
H        0.8930271878   -0.8121178054   -3.6700027131
H        1.7947604682   -2.0555961729    0.4044389802
28   

C       -3.7690679275    4.4409133697    1.7725300561
C       -3.6498032359    3.5346818587    2.8243209975
C       -3.1183467503    4.1826991063    0.5662916945
C       -2.8938316086    2.3693935469    2.6620507601
C       -2.3486565075    3.0231099587    0.4101937872
C       -2.2323895424    2.0782602958    1.4507653261
C       -0.6758792316    0.2143017146    0.4516183265
C        0.1512245072   -0.9024725409    0.8480385031
C       -0.6348871279    0.4707834717   -1.0192342357
C       -1.4418727712    0.8525603615    1.3820495918
C        1.6038593901   -0.5586829968   -1.0855566959
C        0.5112886866    0.1856251607   -3.2086467298
N        1.1545286159   -1.3482197578    0.0347035236
N        0.4764397832    0.0628328774   -1.7536034984
O        0.0336788530   -1.4598375790    1.9259073166
O       -1.6122309390    0.9052318778   -1.6085833656
H       -4.3588121235    5.3426832104    1.8930371605
H       -4.1427976311    3.7330981987    3.7693168131
H       -3.2022376299    4.8859254426   -0.2544121449
H       -2.8222982036    1.6867002630    3.5013998564
H       -1.8382004188    2.9099684785   -0.5326426036
H       -1.4247456487    0.3607710024    2.3493554229
H        2.3024870944    0.2120100367   -0.7420889878
H        2.1321414539   -1.2123949884   -1.7877954185
H        1.1184011448    1.0492728144   -3.4972825305
H       -0.4908893478    0.3093403942   -3.6312290991
H        0.9384392976   -0.7174105438   -3.6559807928
H        1.6754887670   -2.1425323804    0.3858300583
28   

C       -3.8328992618    4.4479909884    1.8170563003
C       -3.5642847019    3.6200637690    2.9043153392
C       -3.2888544400    4.1408456047    0.5708342549
C       -2.7670582575    2.4832885018    2.7383396448
C       -2.4779588662    3.0103812925    0.4090104657
C       -2.2101927369    2.1404493356    1.4873272445
C       -0.6975305456    0.2311095879    0.4826879803
C        0.0855953686   -0.9162097759    0.8797747073
C       -0.5959032775    0.5240289068   -0.9781492033
C       -1.3785390157    0.9417304749    1.4277949484
C        1.6183443836   -0.5623967276   -0.9884348210
C        0.6450030574    0.2954479264   -3.1225708475
N        1.1015151946   -1.3720831641    0.0880041995
N        0.5381040497    0.1165587181   -1.6773075020
O       -0.0739309578   -1.4847573118    1.9463332363
O       -1.5594705353    0.9325339266   -1.6058902712
H       -4.4557864451    5.3268621409    1.9400744033
H       -3.9739618735    3.8566475334    3.8798466091
H       -3.4889460588    4.7833769034   -0.2790760965
H       -2.5819595658    1.8629233294    3.6081800332
H       -2.0642544473    2.8689945203   -0.5742035849
H       -1.2965377230    0.4951005968    2.4135156950
H        2.3298534897    0.1719508497   -0.5957714506
H        2.1474458389   -1.2122726374   -1.6938870586
H        1.6270799146    0.7058651288   -3.3774807051
H       -0.1067777420    0.9939350438   -3.5037692569
H        0.5131621315   -0.6642986078   -3.6319192435
H        1.5875346558   -2.1892875927    0.4367208630
28   

C       -3.8680613123    4.3964763082    1.8344707987
C       -3.2069036090    3.8305620098    2.9214040499
C       -3.7161106567    3.8294668547    0.5706479278
C       -2.3822899386    2.7162036334    2.7367262457
C       -2.8972519938    2.7080252769    0.3890838648
C       -2.1802111503    2.1379666805    1.4640320951
C       -0.7076732070    0.2076594637    0.4350667388
C       -0.0577007351   -1.0252771618    0.8294754427
C       -0.5410974475    0.5520283975   -1.0081595666
C       -1.3050384471    0.9713541738    1.3974625175
C        1.3117106623   -1.0671873011   -1.1913602404
C        0.5006202205    0.1330401784   -3.2136919205
N        0.7782889218   -1.6961957735   -0.0142395931
N        0.3338801312   -0.1899548875   -1.7997636568
O       -0.2136599258   -1.5231780890    1.9314867507
O       -1.0168682981    1.5553628419   -1.5076450505
H       -4.5063144140    5.2620015675    1.9720466166
H       -3.3318183741    4.2540404111    3.9115867630
H       -4.2467383295    4.2476015017   -0.2771846301
H       -1.8849701199    2.3063242843    3.6086564576
H       -2.9067867232    2.2857884118   -0.6010657676
H       -1.0805884702    0.6222141846    2.4001604303
H        2.2059253763   -0.4913845497   -0.9270139056
H        1.6015340158   -1.8434999413   -1.9071398786
H        1.2144583377    0.9553746795   -3.3291242367
H       -0.4538056648    0.4290167816   -3.6611586385
H        0.8677140094   -0.7372514887   -3.7664167191
H        1.1728368130   -2.5471821989    0.3674937059
28   

C       -3.9607572643    4.2914292367    1.7287344623
C       -3.2519160255    3.8331561709    2.8377516021
C       -3.7570083488    3.6903025681    0.4866967439
C       -2.3333047181    2.7877690517    2.6984836179
C       -2.8435957964    2.6375360294    0.3507815298
C       -2.0922747126    2.1753871305    1.4509623492
C       -0.5941193530    0.2612937064    0.4442298619
C        0.0041802679   -0.9911858366    0.8488019106
C       -0.3536808879    0.6293516613   -0.9810754992
C       -1.1377057581    1.0732784636    1.4022842037
C        1.2805231267   -1.2109752895   -1.2356605941
C        0.6420016631    0.1810609338   -3.1947402337
N        0.7610386698   -1.7408015529   -0.0033234276
N        0.4285508280   -0.1832914054   -1.7976894935
O       -0.1401584241   -1.4478880875    1.9700149178
O       -0.6987152481    1.7103094234   -1.4301717449
H       -4.6722968372    5.1028096402    1.8325720991
H       -3.4136518101    4.2860053078    3.8094333829
H       -4.3157813294    4.0306040441   -0.3776086515
H       -1.8007538843    2.4547585119    3.5822353566
H       -2.7779908227    2.1765158396   -0.6228201455
H       -0.8764311635    0.7684441770    2.4106290256
H        2.2784201236   -0.7946991299   -1.0576198504
H        1.3745086969   -2.0311730380   -1.9550316733
H        1.4047972770    0.9634441937   -3.2664339426
H       -0.2860040531    0.5490255594   -3.6444344932
H        0.9694615686   -0.6874752998   -3.7746682652
H        1.1153915008   -2.5995254663    0.4001672846
28   

C       -4.0348858295    4.2366104084    1.7342469283
C       -3.2650782985    3.8662492566    2.8366012219
C       -3.8230045662    3.6114920253    0.5046466985
C       -2.2809179801    2.8810503287    2.7043724561
C       -2.8446349410    2.6179923060    0.3764645385
C       -2.0423574250    2.2416202414    1.4715588177
C       -0.5770280419    0.3297687022    0.4469267067
C       -0.0260020817   -0.9408349222    0.8497697681
C       -0.2813660145    0.7185872075   -0.9620420450
C       -1.0286584283    1.1963826025    1.4095529631
C        1.1726965141   -1.2685992925   -1.2764578838
C        0.7238241381    0.2783518427   -3.1711800784
N        0.6703543840   -1.7375952600   -0.0111485918
N        0.4544313670   -0.1208968887   -1.7935367697
O       -0.1566131670   -1.3708537201    1.9829845466
O       -0.5707987580    1.8290845147   -1.3811721938
H       -4.7972526888    5.0010457299    1.8333978351
H       -3.4310357905    4.3401337811    3.7974535111
H       -4.4222763163    3.8893375039   -0.3548138230
H       -1.7013520139    2.6116075858    3.5801134036
H       -2.7469570642    2.1368160657   -0.5864525622
H       -0.7062548290    0.9317700339    2.4116855903
H        2.2300597917   -1.0045986605   -1.1628965493
H        1.1002453437   -2.0864002748   -2.0010222942
H        1.5518545873    0.9942135376   -3.1997117117
H       -0.1608618636    0.7412052192   -3.6206247675
H        0.9868774744   -0.5918233492   -3.7807805453
H        1.0028605455   -2.5990993297    0.4050028533
28   

C       -4.0935818187    4.1696756594    1.7688993726
C       -3.2627813185    3.8816984776    2.8524672501
C       -3.8762857274    3.5351653876    0.5444060226
C       -2.2145490904    2.9664294924    2.7079191988
C       -2.8353086554    2.6093557994    0.4051710316
C       -1.9805131175    2.3127023388    1.4830551351
C       -0.5511876252    0.4046177143    0.4365775974
C       -0.0464172858   -0.8755952967    0.8604399724
C       -0.1977732626    0.7804821995   -0.9624482624
C       -0.9062021502    1.3337567770    1.3879375061
C        1.0983775185   -1.3187503098   -1.2821798720
C        0.8526297990    0.3140391445   -3.1435928711
N        0.6082373529   -1.7201278665    0.0121421954
N        0.5173393374   -0.0877873805   -1.7813265724
O       -0.1708258909   -1.2663681868    2.0083078907
O       -0.4592353829    1.8974317704   -1.3854247684
H       -4.9052066961    4.8801253610    1.8780753533
H       -3.4317285479    4.3646853997    3.8082125479
H       -4.5168400527    3.7556513047   -0.3017890618
H       -1.5876661562    2.7566803830    3.5671809172
H       -2.7104605055    2.1233084406   -0.5536007678
H       -0.5110239169    1.1195765470    2.3760090916
H        2.1852871112   -1.1945178913   -1.2214631121
H        0.8854739029   -2.1217389773   -1.9955386127
H        1.7161262809    0.9871059318   -3.1350450465
H        0.0077261250    0.8256368665   -3.6162481621
H        1.0926883768   -0.5607573903   -3.7561532915
H        0.9254286901   -2.5741734598    0.4549058047
28   

C       -4.1588981569    4.1029958989    1.8554103047
C       -3.2548426114    3.8860489843    2.8971852145
C       -3.9649746551    3.4669094800    0.6271727664
C       -2.1580664849    3.0376700124    2.7085068041
C       -2.8761700414    2.6061189232    0.4453097291
C       -1.9552712106    2.3779487411    1.4824790095
C       -0.5755508761    0.4715813806    0.3902398747
C       -0.1313576681   -0.8168261765    0.8495342812
C       -0.1540982633    0.8131910850   -0.9990714067
C       -0.8344180784    1.4648461545    1.3182076623
C        1.0421268520   -1.3536047431   -1.2582072604
C        0.9815275621    0.2941516978   -3.1243789398
N        0.5049606139   -1.7058324899    0.0327541399
N        0.5697534910   -0.0843920662   -1.7765948149
O       -0.2761658544   -1.1662402332    2.0080557017
O       -0.4033821407    1.9219542713   -1.4514508947
H       -5.0076938098    4.7619960279    1.9991531259
H       -3.4049455522    4.3718830801    3.8545909463
H       -4.6582756271    3.6382843224   -0.1882628632
H       -1.4733469371    2.8794932784    3.5339381741
H       -2.7483323481    2.1226181585   -0.5159059165
H       -0.3524380996    1.3017208455    2.2770184788
H        2.1344441123   -1.3152532613   -1.1819196066
H        0.7768335414   -2.1429253388   -1.9692705417
H        1.8708004470    0.9312285347   -3.0804768485
H        0.1805250414    0.8362196726   -3.6378101768
H        1.2127982572   -0.5938273881   -3.7211689758
H        0.7930504335   -2.5526787580    0.5081333481
28   

C       -4.1906859094    4.0048706606    1.9648254946
C       -3.1974876325    3.8699889422    2.9379449726
C       -4.0409366163    3.3706160022    0.7289477127
C       -2.0562276441    3.1039623780    2.6740112093
C       -2.9067911998    2.5911607446    0.4731790873
C       -1.9011346043    2.4442260330    1.4419606516
C       -0.5181760663    0.5828847507    0.2702367871
C       -0.1410202256   -0.7101867632    0.7730155199
C        0.0133261744    0.8878462331   -1.0885083576
C       -0.7377236501    1.6154604011    1.1802476729
C        0.9662147401   -1.3990852752   -1.3333997662
C        1.2617674219    0.3004793904   -3.1307238496
N        0.4669357667   -1.6533092448   -0.0042440720
N        0.7137530076   -0.0592244364   -1.8269871769
O       -0.3029252804   -1.0094891770    1.9431521849
O       -0.1436423262    2.0101808897   -1.5491226359
H       -5.0737877615    4.6003223415    2.1672982499
H       -3.3127956503    4.3553958475    3.9003615862
H       -4.8026175466    3.4821261137   -0.0342046171
H       -1.3008501028    3.0066534972    3.4454306307
H       -2.7993069569    2.1102279654   -0.4928537239
H       -0.1589152928    1.5111316867    2.0924055931
H        2.0490808923   -1.5658654765   -1.3284667631
H        0.5126839744   -2.1197779226   -2.0216561403
H        2.2006103324    0.8494354941   -3.0055424294
H        0.5567441280    0.9233940382   -3.6911685806
H        1.4548750925   -0.5958598357   -3.7286654043
H        0.7399881860   -2.4817225714    0.5108597318
28   

C       -4.2208137815    3.2361059328    2.4827520276
C       -3.0658490304    3.3583718992    3.2591590785
C       -4.1702284129    2.5470215180    1.2682627821
C       -1.8624164527    2.7950928517    2.8195946102
C       -2.9688501395    1.9717166759    0.8375320630
C       -1.8000304753    2.0868046469    1.6072385305
C       -0.2945359970    0.4932011980    0.2095163405
C        0.0644210963   -0.8250712213    0.6675202906
C        0.3055234472    0.8056354534   -1.1339461989
C       -0.5629857322    1.4765270594    1.1682981049
C        0.3292179464   -1.5973705680   -1.6409914617
C        1.4605933592    0.0193154695   -3.1870123705
N        0.4236740666   -1.8037718505   -0.2168863256
N        0.6967726887   -0.2341612635   -1.9706023709
O        0.1118689598   -1.1056981968    1.8523530611
O        0.4823593403    1.9691503278   -1.4636467829
H       -5.1527814057    3.6744145401    2.8216761984
H       -3.1021809877    3.8866542892    4.2051510739
H       -5.0623102724    2.4574466954    0.6589664558
H       -0.9782929465    2.8956170806    3.4389253114
H       -2.9433343608    1.4416530420   -0.1076178275
H        0.2122976903    1.5523265367    1.9236324001
H        1.0052008915   -2.2939866103   -2.1480886367
H       -0.6926776753   -1.8014686180   -1.9786605754
H        2.5285885538   -0.1227081667   -2.9935444544
H        1.3035325932    1.0385952134   -3.5541479063
H        1.1482607422   -0.6655848710   -3.9816112820
H        0.7639879574   -2.6638465237    0.1955104488
