27   

C       -4.3482427916    0.0095630004    1.5992893113
C       -3.0710161919   -1.4971825999    0.2018905560
C       -3.1782156490    0.3869976484    2.2624186428
C       -1.8982541266   -1.0996932428    0.8559290352
C       -4.3105141943   -0.9378493902    0.5599144418
C       -1.9397887446   -0.1620455320    1.9029948487
C       -0.6837359912    1.5177426945    3.9256111659
C        0.8138463596    0.7248319847    1.6896275171
C       -5.5347088794   -1.3838027287   -0.1859329166
C       -6.8028352728   -0.5595854737   -0.0601155550
C       -0.1345389770   -1.2119453525    3.5232604480
O       -5.5037867946   -2.3360930138   -0.9557439694
S       -0.4131290697    0.3901058950    2.7444159052
H       -5.2817906988    0.4643287198    1.9103219637
H       -3.0106907594   -2.2291510572   -0.5979714265
H       -3.2326049098    1.1275678595    3.0550785212
H       -0.9491336193   -1.5214793754    0.5402318117
H       -0.0837131559    2.4173458765    3.9547509290
H       -1.4399744002    1.3560628427    4.6813751317
H        1.4361020675    1.5943884839    1.8548527254
H        0.9855498911    0.1015746393    0.8234172243
H       -6.5800508410    0.5001902913   -0.2099607655
H       -7.2475213178   -0.7078281956    0.9272881169
H       -7.5235200490   -0.8733652613   -0.8209049300
H        0.7450676754   -1.1348890624    4.1653844144
H       -1.0052313147   -1.4762989736    4.1261284409
H        0.0395692821   -1.9684647726    2.7571589756
27   

C       -4.3808273500   -0.0640302094    1.6964848510
C       -3.1022815143   -1.5161853936    0.2418563896
C       -3.2038905014    0.3325467763    2.3361336749
C       -1.9233059970   -1.0994846105    0.8722229879
C       -4.3439849782   -0.9957302678    0.6453361776
C       -1.9614797444   -0.1795897195    1.9356667883
C       -0.6945172744    1.5012312928    3.9502126112
C        0.7606794498    0.7825389302    1.6619574401
C       -5.5745229927   -1.4432099856   -0.0897748728
C       -6.7410593191   -0.4778210177   -0.1889649791
C       -0.0857320510   -1.2072809110    3.4894056763
O       -5.5854883848   -2.4799845147   -0.7416893931
S       -0.4270723737    0.3988695367    2.7447553486
H       -5.3214554022    0.3592707138    2.0307742071
H       -3.0482213876   -2.2319734405   -0.5729586860
H       -3.2560686409    1.0595214105    3.1414183216
H       -0.9723048782   -1.4911739102    0.5249911421
H       -0.1184325976    2.4164356006    3.9764960969
H       -1.4243226096    1.3076171105    4.7242399227
H        1.3633553688    1.6665080321    1.8232546437
H        0.9256222484    0.1765410986    0.7822965650
H       -6.3761700447    0.5378699905   -0.3639257495
H       -7.3246150855   -0.5036708346    0.7347496703
H       -7.3874942363   -0.7640497191   -1.0236527459
H        0.8090139099   -1.1172215031    4.1085104260
H       -0.9323260905   -1.5038921139    4.1112939267
H        0.0866318640   -1.9469092206    2.7065928759
27   

C       -4.3875705721   -0.1039795195    1.7675960330
C       -3.0968796649   -1.5019768800    0.2700915651
C       -3.2110747651    0.3075972406    2.3988532290
C       -1.9187346529   -1.0702861260    0.8917521368
C       -4.3422949139   -1.0194268138    0.7050634066
C       -1.9629969614   -0.1708120722    1.9728616134
C       -0.7045157268    1.5014209049    3.9997287908
C        0.7343917371    0.8523927612    1.6805608650
C       -5.5737723868   -1.4689099375   -0.0301289147
C       -6.6083132631   -0.4171163194   -0.3813399113
C       -0.0461270742   -1.1859747048    3.4840645333
O       -5.6368977439   -2.5813725426   -0.5377575800
S       -0.4303256418    0.4254121662    2.7722533372
H       -5.3363731037    0.2911917587    2.1136797895
H       -3.0431784084   -2.2013587986   -0.5588133412
H       -3.2681356692    1.0197351590    3.2169559564
H       -0.9640581174   -1.4339505169    0.5246904843
H       -0.1476171188    2.4281528245    4.0340183767
H       -1.4192565338    1.2790669430    4.7800780460
H        1.3202313566    1.7463155472    1.8488667349
H        0.9008827191    0.2643873743    0.7890747845
H       -6.1139471337    0.5193756931   -0.6533957774
H       -7.2679534889   -0.2450667513    0.4727297509
H       -7.2084793896   -0.7562415367   -1.2305459371
H        0.8551622232   -1.0883296303    4.0924370026
H       -0.8777948906   -1.5105677523    4.1121088003
H        0.1301762672   -1.9084410051    2.6862410446
27   

C       -4.4124576450   -0.1441430730    1.8727963429
C       -3.1494055623   -1.4691470829    0.2894700850
C       -3.2230478988    0.2745103017    2.4742023293
C       -1.9581641816   -1.0311688731    0.8814500972
C       -4.3862697554   -1.0286118448    0.7852454381
C       -1.9816708411   -0.1653766702    1.9906284267
C       -0.6847396152    1.4779880477    4.0170093169
C        0.6901170828    0.9055653564    1.6391530476
C       -5.6419919912   -1.4758773783    0.0858991540
C       -6.5306625868   -0.3907090430   -0.4878215952
C       -0.0050749950   -1.1863947203    3.4161701561
O       -5.7961829306   -2.6422420830   -0.2513939483
S       -0.4336753454    0.4357143063    2.7559541567
H       -5.3583801687    0.2187172584    2.2601199611
H       -3.1155636157   -2.1440437858   -0.5603060003
H       -3.2655729442    0.9610739594    3.3147239165
H       -1.0100189784   -1.3641344403    0.4708857312
H       -0.1404646600    2.4119670818    4.0566242055
H       -1.3713878781    1.2263179470    4.8135348477
H        1.2678734908    1.8041314749    1.8106518331
H        0.8381064033    0.3406092356    0.7297154764
H       -5.9178108317    0.4120954748   -0.9064694839
H       -7.1726239626    0.0169463291    0.2968147703
H       -7.1586418138   -0.8051404929   -1.2815991864
H        0.9138615950   -1.0904915611    3.9978242281
H       -0.8117406229   -1.5375395811    4.0623281691
H        0.1548885360   -1.8872638574    2.5959443320
27   

C       -4.4162454200   -0.1440536344    1.9956561150
C       -3.2100508022   -1.4342683336    0.3439659231
C       -3.2076248322    0.2645303993    2.5641623287
C       -1.9986351597   -1.0070457236    0.9026275797
C       -4.4280687429   -1.0032668278    0.8886396229
C       -1.9836662261   -0.1632876616    2.0288350705
C       -0.6196547019    1.4382280521    4.0442775982
C        0.6720138040    0.9209768358    1.6078991676
C       -5.7204695383   -1.4390049440    0.2419886151
C       -6.4470653211   -0.3930635208   -0.5772041361
C        0.0428624783   -1.2112175731    3.3622469742
O       -6.0147084748   -2.6225846850    0.1468240271
S       -0.4108358527    0.4239832537    2.7530685133
H       -5.3498834925    0.2059151867    2.4229354881
H       -3.2063698311   -2.0949271659   -0.5172213504
H       -3.2221996716    0.9327874445    3.4202454354
H       -1.0650412004   -1.3318769107    0.4539881314
H       -0.0768163675    2.3729820345    4.0849245251
H       -1.2771631226    1.1671707871    4.8588673036
H        1.2530720129    1.8176201895    1.7783560313
H        0.7895188611    0.3759289072    0.6820452268
H       -5.7264885973    0.2230134356   -1.1217723690
H       -7.0406515740    0.2457406708    0.0813448004
H       -7.1116893916   -0.8792976426   -1.2969249504
H        0.9806222117   -1.1257402067    3.9147545529
H       -0.7409371149   -1.5787176185    4.0272211224
H        0.1765011416   -1.8933719802    2.5218130606
27   

C       -4.4218069989   -0.1299593110    2.0714731279
C       -3.2555117368   -1.3273542539    0.3272788027
C       -3.2015280973    0.2527987660    2.6321865583
C       -2.0313406060   -0.9274019908    0.8792828601
C       -4.4606999716   -0.9138963362    0.9108675281
C       -1.9902492011   -0.1401258203    2.0447421001
C       -0.5783591199    1.3797826602    4.0917513413
C        0.6633350930    0.9460467000    1.6129446631
C       -5.7796197262   -1.3516149503    0.3156984732
C       -6.3687779973   -0.4433651550   -0.7417305889
C        0.0540109651   -1.2454055043    3.2988716446
O       -6.3777731938   -2.3378547733    0.7217120100
S       -0.4011807264    0.4137089862    2.7596948779
H       -5.3476876858    0.1801808967    2.5446307306
H       -3.2667644913   -1.9500150091   -0.5611266850
H       -3.1983906168    0.8705424093    3.5254637851
H       -1.1074914022   -1.2306380869    0.3966047106
H       -0.0281057673    2.3087562255    4.1572577459
H       -1.2229049614    1.0830122869    4.9077493164
H        1.2535618746    1.8321513840    1.8056624637
H        0.7602180795    0.4351475049    0.6655470191
H       -5.7593941587   -0.4869629226   -1.6480282547
H       -6.3947339513    0.5864339947   -0.3757406261
H       -7.3876033391   -0.7618851374   -0.9800687913
H        1.0031192478   -1.1858010595    3.8351606920
H       -0.7187510133   -1.6325471884    3.9656744385
H        0.1660689301   -1.8967397270    2.4312995648
27   

C       -4.4381840831   -0.1044270928    2.1163041321
C       -3.2957234790   -1.2187368276    0.3057521522
C       -3.2118800724    0.2650100661    2.6719508886
C       -2.0647071088   -0.8327949288    0.8531126800
C       -4.4952186106   -0.8308238447    0.9190062281
C       -2.0084843323   -0.0931410449    2.0483278454
C       -0.5688465042    1.3602510959    4.1262904579
C        0.6429074176    1.0032942623    1.6199713542
C       -5.8240149354   -1.2863909270    0.3672960829
C       -6.3018510717   -0.6052973810   -0.8974944316
C        0.0479125930   -1.2375324680    3.2424054899
O       -6.5890048053   -1.9668725423    1.0367801598
S       -0.4109104440    0.4383317467    2.7610669812
H       -5.3590100406    0.1686396486    2.6218692610
H       -3.3141639043   -1.8101209258   -0.6034179754
H       -3.1990291492    0.8418355185    3.5920556307
H       -1.1467803452   -1.1120610782    0.3452939496
H       -0.0126384708    2.2835118232    4.2170120751
H       -1.2071692237    1.0404295317    4.9384706688
H        1.2400488086    1.8794961507    1.8353430015
H        0.7260718405    0.5240405744    0.6549388872
H       -5.8036616612   -1.0440857402   -1.7654164961
H       -6.0749175179    0.4633143668   -0.8545389229
H       -7.3828194408   -0.7332312118   -1.0039124992
H        1.0038131537   -1.1961552260    3.7682500033
H       -0.7170572127   -1.6439616880    3.9067473897
H        0.1475043533   -1.8616312699    2.3535725746
27   

C       -4.4480313701   -0.0620223520    2.1443858823
C       -3.3335113577   -1.1196901758    0.2851788194
C       -3.2141372873    0.2880608541    2.6950248272
C       -2.0943824000   -0.7526114158    0.8277437913
C       -4.5260980413   -0.7493738575    0.9242020106
C       -2.0202012052   -0.0515504493    2.0446662088
C       -0.5494910353    1.3308138293    4.1502097156
C        0.6273922968    1.0554958184    1.6170612886
C       -5.8642697420   -1.1891262629    0.3924812833
C       -6.2258831995   -0.7560313169   -1.0135567274
C        0.0510711206   -1.2359086162    3.1728473526
O       -6.7240953068   -1.6373106151    1.1391851959
S       -0.4124950150    0.4550808417    2.7527487631
H       -5.3609142540    0.1964706184    2.6721075280
H       -3.3612015793   -1.6831869974   -0.6411452734
H       -3.1886826020    0.8352884613    3.6327870237
H       -1.1837620841   -1.0169434793    0.2991995204
H        0.0111692075    2.2486790570    4.2650043461
H       -1.1788760043    0.9860185428    4.9591527499
H        1.2302707622    1.9221845463    1.8538969260
H        0.6950469403    0.6096360160    0.6349770496
H       -5.7534080930   -1.4207886188   -1.7406724194
H       -5.8869630471    0.2687972833   -1.1871279223
H       -7.3106069573   -0.7959526121   -1.1477625110
H        1.0142873217   -1.2121484596    3.6863097309
H       -0.7048795630   -1.6630514209    3.8345121383
H        0.1375948814   -1.8308813255    2.2629546658
27   

C       -4.4334811859   -0.0575019168    2.2242605030
C       -3.3602632500   -1.0355993572    0.3005023671
C       -3.1888904668    0.2789029992    2.7582881779
C       -2.1101696683   -0.6824115586    0.8274367131
C       -4.5415354679   -0.7020477168    0.9814922049
C       -2.0096338308   -0.0290588660    2.0682190175
C       -0.4957503040    1.2915108824    4.1834984821
C        0.6289610985    1.0926857058    1.6192393410
C       -5.8945311045   -1.1144417613    0.4730791262
C       -6.1818128733   -0.9302841964   -1.0044203437
C        0.0832441215   -1.2438775380    3.1171424361
O       -6.8095676298   -1.3682998637    1.2457741579
S       -0.3880566986    0.4588059362    2.7574746407
H       -5.3327793567    0.1815840888    2.7838615306
H       -3.4017450256   -1.5611555019   -0.6471804824
H       -3.1444450840    0.7919701330    3.7144683183
H       -1.2111264904   -0.9198519946    0.2672269735
H        0.0680064689    2.2052724801    4.3147096224
H       -1.1092228054    0.9229385588    4.9941705762
H        1.2371639089    1.9517845936    1.8697528907
H        0.6764712034    0.6765983332    0.6230352982
H       -5.7837215780   -1.7768031941   -1.5692091115
H       -5.7225345467   -0.0051800663   -1.3630529378
H       -7.2617695260   -0.8716748473   -1.1676419412
H        1.0568287353   -1.2354153359    3.6111534823
H       -0.6591387492   -1.6905809761    3.7812578315
H        0.1503859396   -1.8112204176    2.1881617293
27   

C       -4.2216337685    0.7045647700    1.5244517852
C       -3.6042148101   -1.5195377934    0.8303487125
C       -2.9480645593    0.9003776163    2.0600072048
C       -2.3187746017   -1.3163980047    1.3516329591
C       -4.5683908196   -0.5000482721    0.8896741957
C       -1.9788228071   -0.1072165286    1.9824616431
C       -0.0874268481    1.6927877483    3.2841717733
C        0.8914036351   -0.3520093465    1.6291071910
C       -5.9662549242   -0.6944620598    0.3764169724
C       -6.1806562670   -1.6567428589   -0.7774529522
C       -0.5191329524   -0.9913355258    3.9953076735
O       -6.8858796371    0.0222608903    0.7505046107
S       -0.2989621756    0.1816275471    2.6438646558
H       -4.9553339429    1.5011940444    1.6035439839
H       -3.8325591930   -2.4753712238    0.3723529317
H       -2.7119327559    1.8507656340    2.5296561774
H       -1.5794404134   -2.1065169500    1.2644817126
H        0.7842757427    2.2729510517    3.0129769235
H       -0.8019462159    2.1008970419    3.9858177809
H        1.7821875909    0.2470741998    1.4936872478
H        0.7807020899   -1.2765573069    1.0806676758
H       -6.2185451858   -2.6831241066   -0.4039114317
H       -5.3703617939   -1.5600577898   -1.5050807552
H       -7.1261119643   -1.4279166500   -1.2777512847
H        0.3794980173   -0.9758198308    4.6151663533
H       -1.3812020850   -0.6927029708    4.5947544410
H       -0.6667407557   -1.9938919136    3.5922855104
27   

C       -4.2140608384    0.7387815619    1.5172960652
C       -3.5870721371   -1.4616152696    0.7584611866
C       -2.9455750017    0.9197275606    2.0695277671
C       -2.3065549991   -1.2719375509    1.2969891729
C       -4.5563186571   -0.4484044176    0.8468584952
C       -1.9743560479   -0.0834912585    1.9694256244
C       -0.0977096474    1.6763231318    3.3458963432
C        0.8995083333   -0.3082253676    1.6295152606
C       -5.9440993839   -0.6186593543    0.2998003450
C       -6.2119255793   -1.7638552265   -0.6597871918
C       -0.5264895031   -1.0312603838    3.9615429657
O       -6.8295200079    0.1917224142    0.5426075235
S       -0.3001881092    0.1875942990    2.6524066198
H       -4.9463082205    1.5352134858    1.6107966423
H       -3.7985321931   -2.4035655380    0.2657607667
H       -2.7143239378    1.8563933858    2.5683034676
H       -1.5638268217   -2.0562735593    1.1888406914
H        0.7749064469    2.2672357340    3.1022238293
H       -0.8193829073    2.0588727963    4.0545776297
H        1.7899809007    0.2969776323    1.5221184837
H        0.7951380851   -1.2131628095    1.0481134221
H       -6.2148468694   -2.7127945346   -0.1173962727
H       -5.4496538587   -1.7862965903   -1.4431371176
H       -7.1890922288   -1.6270013160   -1.1321164317
H        0.3675538014   -1.0341096707    4.5881815545
H       -1.3938602983   -0.7556718004    4.5643485536
H       -0.6678248624   -2.0199685164    3.5235894867
27   

C       -4.2221695397    0.7695378450    1.4980511475
C       -3.5737315108   -1.4015995069    0.6760367570
C       -2.9613108702    0.9394712542    2.0708923025
C       -2.3009253167   -1.2223574097    1.2361144900
C       -4.5521734655   -0.3994649591    0.7899398255
C       -1.9833866291   -0.0547700801    1.9505198011
C       -0.1275183348    1.6757985946    3.3911396372
C        0.8948110821   -0.2586018672    1.6326739051
C       -5.9256826855   -0.5466895307    0.2006526628
C       -6.2678760456   -1.8241180250   -0.5443273111
C       -0.5508313981   -1.0488982734    3.9303062878
O       -6.7691634019    0.3332911105    0.3185545938
S       -0.3169499920    0.2052308046    2.6564486703
H       -4.9572179921    1.5618968804    1.6034473280
H       -3.7665863578   -2.3246797162    0.1420827417
H       -2.7403098600    1.8621953176    2.5994058360
H       -1.5511717377   -1.9970265461    1.1084179838
H        0.7448923930    2.2763902492    3.1715004041
H       -0.8576680496    2.0369162089    4.1023409171
H        1.7835421363    0.3530006653    1.5498281761
H        0.8003350366   -1.1483688693    1.0266896594
H       -6.1708774017   -2.6853655257    0.1217809281
H       -5.6071015821   -1.9439008349   -1.4069094126
H       -7.3006188817   -1.7758220808   -0.9018778585
H        0.3377557139   -1.0659445642    4.5644375042
H       -1.4242770612   -0.7920287552    4.5325740950
H       -0.6852846642   -2.0258003823    3.4645544441
27   

C       -4.1911900165    0.7779266915    1.4568358598
C       -3.5194672300   -1.3742824164    0.6032284418
C       -2.9428058909    0.9388790875    2.0588591464
C       -2.2586034128   -1.2034484825    1.1921545841
C       -4.5042528527   -0.3794008216    0.7230724694
C       -1.9596510675   -0.0503932519    1.9379435402
C       -0.1440819915    1.6508982477    3.4619668133
C        0.9249776381   -0.2172728437    1.6606321569
C       -5.8567386907   -0.5116397673    0.0845874935
C       -6.2946459247   -1.8770409638   -0.4136132894
C       -0.5480385331   -1.0931774313    3.9091989744
O       -6.6435661729    0.4262888812    0.0575027942
S       -0.3073289370    0.2023519817    2.6788379905
H       -4.9292671504    1.5680116452    1.5580529698
H       -3.6992368578   -2.2806132444    0.0366168482
H       -2.7342716503    1.8521198904    2.6085325200
H       -1.5026704806   -1.9712597598    1.0596576599
H        0.7256949657    2.2662892818    3.2752876142
H       -0.8893236032    1.9828263631    4.1717391789
H        1.8089176273    0.4048372773    1.6115445972
H        0.8481266113   -1.0873744148    1.0243386718
H       -6.1083761125   -2.6363321556    0.3504460791
H       -5.7537682604   -2.1310370941   -1.3288981023
H       -7.3663272072   -1.8623081050   -0.6326193106
H        0.3301216434   -1.1200933418    4.5573549525
H       -1.4342055912   -0.8646104067    4.5042107316
H       -0.6632929847   -2.0565934801    3.4113572261
27   

C       -4.2158033618    0.7548844989    1.4525686293
C       -3.5019315319   -1.3574016490    0.5359401149
C       -2.9774946434    0.9122972442    2.0764384993
C       -2.2512601247   -1.1902764836    1.1468489756
C       -4.5035223185   -0.3835481669    0.6811245663
C       -1.9789009285   -0.0593426704    1.9358818593
C       -0.2058087989    1.6155307282    3.5379036419
C        0.9115913335   -0.1767292820    1.6893597227
C       -5.8368665386   -0.5055728006    0.0008454661
C       -6.3846560537   -1.8965271660   -0.2626681008
C       -0.5756224296   -1.1467780042    3.8886537791
O       -6.5558024837    0.4714076505   -0.1657904384
S       -0.3391726669    0.1920326346    2.7047546263
H       -4.9654445768    1.5326320218    1.5636685867
H       -3.6689218295   -2.2406505360   -0.0703473110
H       -2.7878360469    1.8104301648    2.6569703223
H       -1.4821854622   -1.9414864879    0.9961027852
H        0.6580547888    2.2480118018    3.3836261244
H       -0.9648448618    1.9140608226    4.2478612969
H        1.7877281398    0.4580179047    1.6730788824
H        0.8544742771   -1.0254087726    1.0227645989
H       -6.1614342698   -2.5567484414    0.5796077689
H       -5.9421069507   -2.3031292119   -1.1755553350
H       -7.4702189251   -1.8478004639   -0.3881413551
H        0.2954522554   -1.1831746138    4.5458449478
H       -1.4716020242   -0.9502015780    4.4803560871
H       -0.6716162612   -2.0945561090    3.3577934409
27   

C       -4.2040444714    0.7715040046    1.4036707857
C       -3.4455602006   -1.3090920752    0.4516645659
C       -2.9792893088    0.9299349399    2.0538989011
C       -2.2080269146   -1.1409135965    1.0882430107
C       -4.4628448900   -0.3540081309    0.6051976206
C       -1.9653751536   -0.0256486743    1.9091493274
C       -0.2484372722    1.6282069188    3.5923705549
C        0.9305660703   -0.0807648129    1.7040710249
C       -5.7763609643   -0.4697080041   -0.1167952431
C       -6.4578904304   -1.8245601312   -0.1369137747
C       -0.5686665669   -1.1500628695    3.8476747439
O       -6.3977304807    0.5277958856   -0.4593359281
S       -0.3422713584    0.2307911829    2.7110300548
H       -4.9653599988    1.5381282724    1.5120724690
H       -3.5972715333   -2.1759741166   -0.1820434411
H       -2.8108320199    1.8176178146    2.6566438211
H       -1.4259583190   -1.8773403494    0.9316321454
H        0.6060133214    2.2807542689    3.4731948737
H       -1.0243071451    1.8896450883    4.2987379271
H        1.7952767434    0.5693769906    1.7234324073
H        0.8984777748   -0.9063031739    1.0073848085
H       -6.3134583076   -2.3313097176    0.8209278469
H       -6.0414514411   -2.4380183851   -0.9396321067
H       -7.5306683144   -1.6975362904   -0.3084504872
H        0.2935769292   -1.1904333616    4.5161936224
H       -1.4767388009   -0.9904394300    4.4319685806
H       -0.6375950858   -2.0819286546    3.2853958963
27   

C       -4.1849183559    0.7088490393    1.3707623095
C       -3.3570585118   -1.3266086806    0.3753639737
C       -2.9762019391    0.8780323979    2.0482838930
C       -2.1359378965   -1.1468191080    1.0395744585
C       -4.3983977144   -0.4013977464    0.5408214817
C       -1.9367082046   -0.0496616731    1.8966707178
C       -0.2924424036    1.5935734321    3.6617053547
C        0.9641304367   -0.0292270714    1.7475398436
C       -5.6904743889   -0.5369377405   -0.2206793346
C       -6.4898002691   -1.8063875157   -0.0059985335
C       -0.5487223445   -1.1971452364    3.8279524918
O       -6.2126252308    0.4327372258   -0.7539259284
S       -0.3355678288    0.2220326042    2.7368242779
H       -4.9672574327    1.4536813950    1.4796672670
H       -3.4805929243   -2.1761708961   -0.2875248365
H       -2.8393323027    1.7528326166    2.6772878232
H       -1.3328808384   -1.8588194200    0.8763674656
H        0.5491947350    2.2682523879    3.5806494558
H       -1.0887313347    1.8160192033    4.3586106493
H        1.8134275093    0.6386981483    1.8053635151
H        0.9647349815   -0.8325829638    1.0246459308
H       -6.4254089998   -2.1164534424    1.0403273713
H       -6.0994472675   -2.6029941982   -0.6439386883
H       -7.5397523568   -1.6317861864   -0.2578236025
H        0.3016488006   -1.2364102828    4.5115755453
H       -1.4712412171   -1.0772013086    4.3989181708
H       -0.5837833448   -2.1132576062    3.2373476922
27   

C       -4.1889378019    0.6730719359    1.3286181349
C       -3.3027936965   -1.3228581968    0.3001728804
C       -2.9933359385    0.8519799974    2.0272103123
C       -2.0950316474   -1.1320470850    0.9850631907
C       -4.3627136529   -0.4216210022    0.4710180611
C       -1.9318098709   -0.0502488578    1.8694918837
C       -0.3537705024    1.5774736689    3.7079823823
C        0.9695466471    0.0524982024    1.7590732239
C       -5.6446736539   -0.5849912032   -0.3096826779
C       -6.5731713647   -1.6943565590    0.1375361557
C       -0.5342689954   -1.2223752715    3.7814004118
O       -6.0404368780    0.2880234146   -1.0693285536
S       -0.3486577589    0.2364217087    2.7384134804
H       -4.9893878457    1.3972472109    1.4424023671
H       -3.4031137094   -2.1596712257   -0.3827574619
H       -2.8833088947    1.7145160592    2.6780667095
H       -1.2748554203   -1.8231241693    0.8171856124
H        0.4711113693    2.2756802710    3.6610592572
H       -1.1648946359    1.7562561837    4.4003091614
H        1.8007654399    0.7390463362    1.8511408668
H        0.9992665528   -0.7246662161    1.0086225248
H       -6.5846942263   -1.7548873535    1.2289962982
H       -6.2338745561   -2.6486467872   -0.2726140293
H       -7.5887396220   -1.4950259816   -0.2162178012
H        0.3085279820   -1.2591421368    4.4744926926
H       -1.4667298140   -1.1471152442    4.3437325762
H       -0.5352452733   -2.1199306438    3.1619724000
27   

C       -4.2082853379    0.6010467790    1.2988818125
C       -3.2460152111   -1.3239299654    0.2012285185
C       -3.0242274211    0.7910894913    2.0146396982
C       -2.0513021855   -1.1209179517    0.9046747628
C       -4.3294766277   -0.4541858033    0.3850354507
C       -1.9309734981   -0.0676063638    1.8299021622
C       -0.4193109557    1.5464611465    3.7343621563
C        0.9679327865    0.1183143702    1.7565825306
C       -5.6149615507   -0.6744051349   -0.3797598735
C       -6.6451603233   -1.5605455924    0.2877461745
C       -0.5229358595   -1.2584730635    3.7212686906
O       -5.7670379167   -0.2657226249   -1.5219223433
S       -0.3656205613    0.2358927937    2.7250677450
H       -5.0360923718    1.2866364053    1.4466055506
H       -3.3206370564   -2.1403004973   -0.5096692889
H       -2.9488695576    1.6269062531    2.7041256499
H       -1.2093479528   -1.7811262150    0.7210923785
H        0.3858067455    2.2687237981    3.7170317168
H       -1.2414445479    1.6810152764    4.4236314794
H        1.7786361633    0.8243744110    1.8788353689
H        1.0279199216   -0.6351577428    0.9840359539
H       -7.1074662112   -1.0256875160    1.1212536427
H       -6.1688192801   -2.4697468072    0.6637431708
H       -7.4199373279   -1.8374325831   -0.4329186896
H        0.3139789013   -1.2948998244    4.4214702584
H       -1.4622941149   -1.2247011779    4.2760495474
H       -0.4948173965   -2.1362471559    3.0746507869
27   

C       -4.2110875867    0.5283436919    1.3014844471
C       -3.1639766785   -1.3300375306    0.1640888181
C       -3.0404331763    0.7458452860    2.0317372534
C       -1.9839239514   -1.0983273687    0.8826966816
C       -4.2782694235   -0.5000400064    0.3514471683
C       -1.9122052653   -0.0636408526    1.8338645080
C       -0.4840413124    1.5541626329    3.7977748564
C        0.9770661345    0.2409636139    1.7940250290
C       -5.5526347132   -0.7931453204   -0.4023735752
C       -6.6777805187   -1.4133370126    0.4002738803
C       -0.4731181216   -1.2516160039    3.7047214658
O       -5.5776656163   -0.8106533323   -1.6251078117
S       -0.3680880923    0.2758978946    2.7527350375
H       -5.0689396627    1.1706972436    1.4694497008
H       -3.2066918283   -2.1357163778   -0.5620541489
H       -3.0041495960    1.5628169372    2.7465149758
H       -1.1170827101   -1.7235769220    0.6927408896
H        0.2906344999    2.3091221834    3.8078764934
H       -1.3158787592    1.6345794169    4.4838246923
H        1.7570959463    0.9756911351    1.9436829161
H        1.0742448872   -0.4873573056    1.0013466632
H       -7.2249060023   -0.6326192077    0.9343161355
H       -6.2734819957   -2.1278837192    1.1221131379
H       -7.3666238823   -1.9375758120   -0.2682052720
H        0.3582029661   -1.2741359011    4.4121350765
H       -1.4180567550   -1.2721689131    4.2505885901
H       -0.4031746530   -2.1087346869    3.0339800677
27   

C       -4.2214548870    0.4386142628    1.3291736968
C       -3.1124549210   -1.3531654813    0.1398591527
C       -3.0550987321    0.6788503073    2.0595356225
C       -1.9386246381   -1.0973500307    0.8599554827
C       -4.2548099593   -0.5660383003    0.3514405747
C       -1.8994450740   -0.0843651467    1.8361023489
C       -0.5179415627    1.5383998736    3.8281542757
C        0.9770096471    0.3175408294    1.7912997500
C       -5.5109527480   -0.9022391278   -0.4071604098
C       -6.7359247782   -1.2563795636    0.4126320418
C       -0.4141408860   -1.2640396725    3.6755606507
O       -5.4753179947   -1.1661990566   -1.6015909182
S       -0.3635206873    0.2863339184    2.7566355382
H       -5.1000810511    1.0452927867    1.5200414639
H       -3.1297103438   -2.1437912329   -0.6040754252
H       -3.0441015948    1.4774753745    2.7955529833
H       -1.0515165659   -1.6874516073    0.6519821851
H        0.2296570390    2.3199723411    3.8490477234
H       -1.3472870128    1.5751394051    4.5209002910
H        1.7313521402    1.0764682384    1.9514157844
H        1.0960501915   -0.3920943610    0.9847538945
H       -7.2494105092   -0.3438508309    0.7251110108
H       -6.4423340167   -1.8273028057    1.2974924856
H       -7.4216096926   -1.8625207010   -0.1862765195
H        0.4212378685   -1.2751319322    4.3784473384
H       -1.3550230717   -1.3270628667    4.2251709205
H       -0.3203670758   -2.1037330090    2.9859104452
27   

C       -4.2961854326    0.3516051717    1.3414197407
C       -3.1272404915   -1.3842180745    0.1243676548
C       -3.1325874840    0.6314711815    2.0621811575
C       -1.9577015727   -1.0869058810    0.8350602822
C       -4.3010067146   -0.6484120983    0.3566431149
C       -1.9499287830   -0.0832556211    1.8212023737
C       -0.6203619708    1.5624664173    3.8290461218
C        0.9055620985    0.4437472085    1.7570601925
C       -5.5420513108   -1.0362612518   -0.3973081660
C       -6.8409699635   -1.1209980262    0.3814338932
C       -0.3964273101   -1.2301034433    3.6259207220
O       -5.4769442119   -1.5054381342   -1.5262965593
S       -0.4223254531    0.3368786792    2.7343155328
H       -5.1934962859    0.9241657189    1.5491534818
H       -3.1166212242   -2.1705046974   -0.6244915572
H       -3.1456419598    1.4230328775    2.8057793292
H       -1.0498417639   -1.6390312810    0.6128599667
H        0.0925733805    2.3755601580    3.8568870111
H       -1.4432167583    1.5503191573    4.5303737337
H        1.6276688046    1.2320933525    1.9234800085
H        1.0472213822   -0.2462096924    0.9371848053
H       -7.2846610987   -0.1265103786    0.4728021075
H       -6.6555431483   -1.5299473271    1.3782105918
H       -7.5443241463   -1.7758168333   -0.1409504774
H        0.4443740965   -1.2163563429    4.3222567339
H       -1.3290283403   -1.3447323154    4.1812957761
H       -0.2710831588   -2.0527576046    2.9209109247
27   

C       -4.2787099466    0.2829968510    1.3649739658
C       -3.0656867710   -1.3854433415    0.0992538722
C       -3.1222108561    0.5729420128    2.0928884001
C       -1.9038174315   -1.0768772905    0.8177262659
C       -4.2621715046   -0.6938405679    0.3547484390
C       -1.9217279029   -0.1029498335    1.8324564381
C       -0.6370783451    1.5197892409    3.8864742426
C        0.9174272782    0.5027840233    1.7836417338
C       -5.4874695608   -1.0830761863   -0.4210336051
C       -6.8421701634   -0.9075195046    0.2405136241
C       -0.3378430396   -1.2600004629    3.6038933054
O       -5.4039916294   -1.6947983976   -1.4787118239
S       -0.4056317295    0.3309764114    2.7581764074
H       -5.1855495646    0.8324779221    1.5917373866
H       -3.0296861170   -2.1498159328   -0.6712359050
H       -3.1552632351    1.3432603547    2.8578799319
H       -0.9816522614   -1.5975110236    0.5790379750
H        0.0515593051    2.3525797200    3.9355349424
H       -1.4572867781    1.4637761649    4.5887941202
H        1.6160621094    1.3075080595    1.9705822932
H        1.0787709390   -0.1611999823    0.9461541953
H       -7.1632249035    0.1339906048    0.1582845820
H       -6.7879511478   -1.1927765288    1.2944865395
H       -7.5804676123   -1.5446947490   -0.2549329815
H        0.5021866469   -1.2441148223    4.3011090214
H       -1.2671318621   -1.4156827695    4.1548440008
H       -0.1906226757   -2.0581882679    2.8753673229
27   

C       -4.2962966246    0.1854995334    1.4149333651
C       -3.0580998122   -1.4288913767    0.1066182327
C       -3.1352459515    0.5018293973    2.1242748610
C       -1.8925465410   -1.0932515090    0.8066048721
C       -4.2734160238   -0.7826666104    0.3939489345
C       -1.9203058348   -0.1332886092    1.8335247481
C       -0.6487519861    1.5038524399    3.8829616302
C        0.8951088988    0.5650864999    1.7364877478
C       -5.4960897906   -1.1869897160   -0.3779003455
C       -6.8562215643   -0.7616630620    0.1442899676
C       -0.2655901257   -1.2622488699    3.5577416880
O       -5.4240101229   -1.9285553144   -1.3501055490
S       -0.4007902243    0.3367469440    2.7356281352
H       -5.2095020186    0.7107382787    1.6702787798
H       -3.0095150118   -2.1816702382   -0.6745110154
H       -3.1768318648    1.2622689592    2.8986913510
H       -0.9596124429   -1.5817846716    0.5431927684
H        0.0112548884    2.3597663841    3.9273516667
H       -1.4508242274    1.4108173600    4.6021224322
H        1.5688624517    1.3919227465    1.9181943661
H        1.0624353124   -0.0842774229    0.8887804641
H       -6.9989641382    0.3098711852   -0.0178040631
H       -6.9398018945   -0.9891060888    1.2102685908
H       -7.6419545580   -1.3049515875   -0.3887358706
H        0.5870545117   -1.2286495652    4.2388154416
H       -1.1784590659   -1.4550399226    4.1242171942
H       -0.1074887900   -2.0456090907    2.8155243322
27   

C       -4.3245497124    0.0955211598    1.5115962289
C       -3.0507774419   -1.4597438246    0.1661995464
C       -3.1613643745    0.4574028004    2.1949863034
C       -1.8842513619   -1.0781735644    0.8406441351
C       -4.2860644653   -0.8679406952    0.4859563786
C       -1.9280762341   -0.1243607601    1.8725833261
C       -0.6794618789    1.5609070516    3.8959889022
C        0.8525857318    0.6891750747    1.7130506047
C       -5.5055591273   -1.3108677551   -0.2699716271
C       -6.8432210348   -0.6783921397    0.0675495393
C       -0.1909591149   -1.1878533734    3.5560884582
O       -5.4431344146   -2.1685683796   -1.1422999062
S       -0.4090798250    0.4057992806    2.7415529305
H       -5.2515261769    0.5799819230    1.7956673042
H       -2.9876163655   -2.2059582918   -0.6201593577
H       -3.2167813133    1.2116489722    2.9745685972
H       -0.9380251209   -1.5258107478    0.5530787000
H       -0.0562834921    2.4446173932    3.9254765776
H       -1.4590183906    1.4330008969    4.6343145124
H        1.4938781042    1.5445318989    1.8795869040
H        1.0288906073    0.0467061758    0.8619315684
H       -6.8021415295    0.4001161698   -0.1061360207
H       -7.0993656782   -0.8766873270    1.1115487276
H       -7.6236357826   -1.1043599640   -0.5697975711
H        0.6746342331   -1.1211123480    4.2181082460
H       -1.0824420204   -1.4184596365    4.1421821989
H       -0.0181999004   -1.9628258537    2.8083422963
