25   
Generated by ForceBalance from scan.xyz: Frame 1 of 24
C       -3.5193236325   -2.0008572585   -5.6467419951
C       -4.3972400762   -1.0626171240   -6.2074774180
C       -3.0564914528    0.7323764330   -5.2400768103
C       -2.1787529714   -0.2064250419   -4.6829998473
C       -2.4345959165   -1.5726143682   -4.9018255754
C       -4.1484927543    0.2888090371   -5.9938529283
C        2.6624911564    2.0249787284   -3.0301912871
C        1.9529964586    3.2741117104   -2.4935132243
C        0.4729892349    1.5304888945   -2.8677745095
C       -0.8024724831    1.4683922701   -3.6877354616
O        1.6038127179    1.3235746496   -3.6872956415
O        0.5944920947    2.8400915937   -2.3074504265
O       -1.0835264472    0.0919150021   -3.9370548080
F       -1.5908502363   -2.4811349699   -4.3627815887
Br      -5.3294524084    1.5969486361   -6.7554637340
H       -3.6730937797   -3.0665563464   -5.7862717828
H       -5.2492948672   -1.3868596096   -6.7940265871
H       -2.8990197496    1.7935182644   -5.0959641011
H        3.4406536820    2.2352529986   -3.7656833925
H        3.0796755015    1.4153780271   -2.2167128802
H        2.3567179376    3.6189512677   -1.5370339514
H        1.9697648606    4.0976776809   -3.2159602594
H        0.4471100295    0.7862639980   -2.0562502104
H       -0.6530268763    2.0176938397   -4.6240423697
H       -1.6145958106    1.9294382394   -3.1137122349
25   
Generated by ForceBalance from scan.xyz: Frame 2 of 24
C       -3.4792792373   -1.0422435343   -7.2143250542
C       -3.9801144962    0.0407061946   -7.9504522991
C       -2.5299300583    1.5397502857   -6.6810915739
C       -2.0285387878    0.4560554491   -5.9488770056
C       -2.5234115819   -0.8292869771   -6.2367186489
C       -3.4940803974    1.3129735515   -7.6692888271
C        2.6713762128    1.9136730776   -3.1174790809
C        1.9283408374    3.1136100879   -2.5139765253
C        0.4866954377    1.6425387692   -3.5739980361
C       -0.5613866175    1.8284443644   -4.6597303523
O        1.7711396707    1.4683815437   -4.1353218933
O        0.5429927531    2.8176117208   -2.7611335963
O       -1.0933627945    0.5385775172   -4.9671623187
F       -2.0430216744   -1.8771079365   -5.5298880346
Br      -4.1549409824    2.8154579281   -8.6647636294
H       -3.8275482532   -2.0541902937   -7.3974221219
H       -4.7278047029   -0.1140358813   -8.7200199478
H       -2.1808211221    2.5466982275   -6.4923029483
H        3.6219103620    2.1687087580   -3.5887317949
H        2.8301064259    1.1207605368   -2.3735856079
H        2.0923379757    3.2193475372   -1.4374122641
H        2.1867396599    4.0519882424   -3.0168374473
H        0.2246243121    0.7785974668   -2.9433539288
H       -0.0976807507    2.2859564315   -5.5403791379
H       -1.3522781149    2.4820200872   -4.2753664749
25   
Generated by ForceBalance from scan.xyz: Frame 3 of 24
C       -3.7408112057   -1.5910790736   -6.1057410178
C       -4.3916533218   -0.5980265208   -6.8513820607
C       -2.8400626583    1.0567864296   -5.9514655913
C       -2.1891854842    0.0637055182   -5.2083307941
C       -2.6629676485   -1.2576855036   -5.3047008210
C       -3.9275313101    0.7096914034   -6.7604579266
C        2.7194620823    2.2001528522   -3.0797965772
C        1.8514800584    3.1093002217   -2.1895714765
C        0.5831679768    1.5552995010   -3.3370543353
C       -0.6141136022    1.5981706857   -4.2786371010
O        1.7912023371    1.7222396254   -4.0553455952
O        0.5122032403    2.6356687141   -2.4071698792
O       -1.1253795482    0.2670433468   -4.3882919895
F       -2.0377564426   -2.2190998865   -4.5880734100
Br      -4.7936193301    2.0916830927   -7.7732075798
H       -4.0666897690   -2.6260428257   -6.1445958813
H       -5.2362755308   -0.8478337578   -7.4833582812
H       -2.5117780119    2.0870917890   -5.9077183117
H        3.5228583285    2.7241085315   -3.6001279920
H        3.1390162884    1.3601665935   -2.5093676847
H        2.1086014793    3.0258899512   -1.1287295244
H        1.9012220667    4.1598787859   -2.4937061516
H        0.5965086718    0.5998627597   -2.7898262664
H       -0.2940171442    1.9751021557   -5.2556955488
H       -1.3755585056    2.2619160950   -3.8562074635
25   
Generated by ForceBalance from scan.xyz: Frame 4 of 24
C       -4.0794865283   -0.5011720589   -6.7046681978
C       -4.5038189275    0.5923159496   -7.4726992594
C       -2.7209993309    1.9404871641   -6.4901372808
C       -2.2989618347    0.8470612017   -5.7231978373
C       -2.9989676903   -0.3668580302   -5.8509040116
C       -3.8147576747    1.7940507593   -7.3503305601
C        2.6348128180    2.3936425857   -3.0224276466
C        1.6597608876    3.0094260112   -1.9935727243
C        0.5416746208    1.8425255739   -3.6346325444
C       -0.5448300239    2.0836304422   -4.6769254298
O        1.8125031402    2.1662111431   -4.1688270314
O        0.3570433103    2.7022643166   -2.5139820923
O       -1.2542463188    0.8541166657   -4.8548781826
F       -2.5930809302   -1.4242944743   -5.1119928830
Br      -4.3701663913    3.3094381117   -8.3896620493
H       -4.5855910407   -1.4598220370   -6.7655104239
H       -5.3493463203    0.4992596555   -8.1447450957
H       -2.2119491336    2.8934253803   -6.4261015879
H        3.4485371704    3.0597506169   -3.3141403679
H        3.0524309824    1.4444145088   -2.6608497975
H        1.7831293081    2.5729054908   -0.9964708245
H        1.7493664237    4.0975742585   -1.9251915199
H        0.5231442817    0.7910890868   -3.3065769575
H       -0.0785519546    2.3962335368   -5.6171695364
H       -1.2197822009    2.8677143685   -4.3193571336
25   
Generated by ForceBalance from scan.xyz: Frame 5 of 24
C       -4.1783950701   -0.3924847864   -6.6364849214
C       -4.5489277425    0.6867043514   -7.4510740603
C       -2.6847977291    1.9774556069   -6.5449361468
C       -2.3161727345    0.8992029483   -5.7304995750
C       -3.0839135055   -0.2780801110   -5.7976658156
C       -3.7936166566    1.8527396478   -7.3891216737
C        2.6127796604    2.5424321295   -3.0003502764
C        1.5593423445    2.9023640106   -1.9300017864
C        0.6087607122    1.8188469299   -3.7293139992
C       -0.4721907808    2.0743556575   -4.7715284712
O        1.8367979420    2.3581417730   -4.1863745248
O        0.3118183463    2.4965697453   -2.5130652190
O       -1.2649358159    0.8883018069   -4.8700407494
F       -2.7298068470   -1.3213904450   -5.0136953818
Br      -4.2776721785    3.3488464309   -8.4902444203
H       -4.7368499942   -1.3235443806   -6.6492312555
H       -5.4048153414    0.6102291837   -8.1119965167
H       -2.1238436661    2.9028742854   -6.5286182014
H        3.3400144773    3.3339105582   -3.1891186345
H        3.1415954125    1.6139346357   -2.7465717459
H        1.7297371850    2.3707109280   -0.9875075927
H        1.5082539088    3.9775335147   -1.7337134792
H        0.7102978509    0.7380151526   -3.5422894010
H        0.0053294686    2.2906351817   -5.7333419382
H       -1.0825508459    2.9277733545   -4.4593280696
25   
Generated by ForceBalance from scan.xyz: Frame 6 of 24
C       -5.6930611013    0.1714364249   -2.4547598304
C       -6.2933034503    1.4379817168   -2.4911691607
C       -4.0883585141    2.4592750596   -2.2552903968
C       -3.4908226303    1.1931126114   -2.2162288473
C       -4.3202702338    0.0612528304   -2.3196077918
C       -5.4771934144    2.5594686972   -2.3904143414
C        2.1297148161    2.5843276917   -1.3614723695
C        1.4643055790    2.2892644704   -0.0220752059
C        0.1218087242    1.5565474274   -1.7577452377
C       -1.2945498997    2.0886089976   -1.9521810603
O        1.0172010213    2.5415490971   -2.2613965279
O        0.4453378369    1.3482833472   -0.3827699487
O       -2.1587837893    0.9595654384   -2.0897843685
F       -3.7465023985   -1.1623829167   -2.2851289098
Br      -6.2666088996    4.3089623775   -2.4340886104
H       -6.2880375941   -0.7336890777   -2.5297380094
H       -7.3678883831    1.5363746074   -2.5951821121
H       -3.4897425165    3.3580715206   -2.1835146700
H        2.5847310040    3.5742286462   -1.4310992884
H        2.8675815980    1.8144104369   -1.6237503557
H        2.1236084522    1.8178174108    0.7103239922
H        1.0184128313    3.1943129513    0.4117465911
H        0.2437556059    0.5988078665   -2.2804400311
H       -1.3245957971    2.6993178644   -2.8620716007
H       -1.5782736675    2.6981191938   -1.0870079609
25   
Generated by ForceBalance from scan.xyz: Frame 7 of 24
C       -5.3285516116   -0.7867698912   -2.4195132925
C       -6.1167292988    0.3561008831   -2.6149321514
C       -4.0982256013    1.7274938767   -2.5356405025
C       -3.3128032276    0.5847886237   -2.3373010259
C       -3.9566735214   -0.6652622952   -2.2841325383
C       -5.4844777052    1.5935053395   -2.6689596202
C        1.8165182124    3.0164904395   -1.2602754229
C        1.0999827724    2.4081471156   -0.0598886862
C        0.1966030723    1.5479454647   -1.9882945542
C       -1.2818163664    1.8311479879   -2.2270594230
O        0.9116375706    2.7312701114   -2.3353744088
O        0.4859604426    1.2460592891   -0.6297812843
O       -1.9625979942    0.5782874197   -2.1908732784
F       -3.2019464565   -1.7707121168   -2.0963034270
Br      -6.5353407391    3.1787096276   -2.9316308855
H       -5.7757691751   -1.7749360712   -2.3706052354
H       -7.1924355841    0.2731271942   -2.7207796007
H       -3.6462039256    2.7095753097   -2.5875223809
H        1.9460218687    4.0994456559   -1.2034726535
H        2.7859484362    2.5337870707   -1.4383934218
H        1.7655545620    2.0806314321    0.7412861967
H        0.3430372493    3.0924437540    0.3469289333
H        0.5231782866    0.6916666294   -2.5913764193
H       -1.4023165893    2.3070686041   -3.2078586495
H       -1.6564891608    2.5038891946   -1.4463916147
25   
Generated by ForceBalance from scan.xyz: Frame 8 of 24
C       -5.5579227049   -0.6137456072   -2.0623161769
C       -6.3503704324    0.5178221051   -2.3010621964
C       -4.3258415944    1.8778203410   -2.4153611846
C       -3.5357341733    0.7462620533   -2.1746882676
C       -4.1806922381   -0.4925593222   -2.0017134140
C       -5.7174430216    1.7440066809   -2.4728242081
C        1.5516152913    3.1071744013   -1.1891406618
C        0.8789482330    2.2614347556   -0.1119771235
C       -0.0008898111    1.6915577153   -2.1427278659
C       -1.4946231242    1.9737984435   -2.2813459557
O        0.6840877564    2.9290049028   -2.3194749895
O        0.3471070120    1.1694291519   -0.8722876355
O       -2.1804914607    0.7404522561   -2.0872448270
F       -3.4221636449   -1.5872178701   -1.7721265805
Br      -6.7762985226    3.3123736946   -2.7973821943
H       -6.0057828957   -1.5928997970   -1.9225947108
H       -7.4301551061    0.4349872988   -2.3501622389
H       -3.8734684975    2.8510178764   -2.5564121391
H        1.5958367346    4.1735638111   -0.9563259968
H        2.5571056679    2.7358587692   -1.4233136130
H        1.5669720290    1.8529580603    0.6305892053
H        0.0770789481    2.8141997939    0.3957300649
H        0.3181012066    0.9549242016   -2.8902578591
H       -1.6935176547    2.3840303871   -3.2791735213
H       -1.7986953935    2.7080943919   -1.5249641490
25   
Generated by ForceBalance from scan.xyz: Frame 9 of 24
C       -2.8015640050   -3.4396154367   -0.6753738464
C       -2.5699863177   -3.0618849888    0.6534478366
C       -1.8605489933   -0.8613943841   -0.1316828071
C       -2.0864376839   -1.2406515976   -1.4597591019
C       -2.5606782424   -2.5417083529   -1.7020825008
C       -2.1011536359   -1.7747167432    0.8967937271
C        1.7090242976    1.9157016141   -1.1230840948
C        1.4216192200    0.5317260721   -0.5473989877
C        0.1290308366    0.9014838388   -2.4258971410
C       -1.4076098304    0.8682198466   -2.4135048316
O        0.5445030984    2.1612177813   -1.9245547612
O        0.7138277578   -0.1132984520   -1.6140135360
O       -1.9124856838   -0.4565868011   -2.5594097893
F       -2.7844096424   -2.9186252230   -2.9819063571
Br      -1.7399013787   -1.2250815857    2.7026180291
H       -3.1674282408   -4.4318530992   -0.9213030256
H       -2.7474853330   -3.7570141238    1.4661105436
H       -1.4833278994    0.1220432554    0.1100386053
H        1.7772349483    2.7081460608   -0.3754483562
H        2.6112404909    1.9141821829   -1.7486955702
H        2.3184122539   -0.0523473477   -0.3290634098
H        0.7967110685    0.5869211382    0.3537221319
H        0.5022214962    0.7421615930   -3.4475273631
H       -1.7832599725    1.4234764566   -3.2758737799
H       -1.7855981834    1.3511663775   -1.5080426984
25   
Generated by ForceBalance from scan.xyz: Frame 10 of 24
C       -2.8499684972   -3.4202256400   -0.7932558814
C       -2.7046175509   -2.9771077959    0.5276959712
C       -2.0796138724   -0.7722898410   -0.3155316131
C       -2.2159286610   -1.2189769099   -1.6353928794
C       -2.6068606146   -2.5526486164   -1.8450163413
C       -2.3202144032   -1.6566666098    0.7382555894
C        1.4670013707    1.7117794312   -0.9181243599
C        1.2365954983    0.2265590097   -0.6454928087
C       -0.0130527116    0.9360507229   -2.4609933238
C       -1.5486807032    0.8657468967   -2.6229408537
O        0.2950773609    2.0674037957   -1.6648508136
O        0.5319966720   -0.2116446904   -1.8163739641
O       -2.0284330583   -0.4680565538   -2.7555092121
F       -2.7449565866   -2.9926980859   -3.1165910107
Br      -2.0780327762   -1.0194619988    2.5353312727
H       -3.1480487418   -4.4408338521   -1.0131958287
H       -2.8832282083   -3.6482295305    1.3600352888
H       -1.7723632655    0.2420254458   -0.1000342231
H        1.4980611819    2.3341645356   -0.0222006473
H        2.3705637215    1.8788190726   -1.5197186820
H        2.1591983731   -0.3526451880   -0.5600582457
H        0.6200852111    0.0648575842    0.2473149932
H        0.4723004581    1.0137065745   -3.4450941385
H       -1.8378360655    1.3670987434   -3.5485570369
H       -2.0288217758    1.3867744015   -1.7897180168
25   
Generated by ForceBalance from scan.xyz: Frame 11 of 24
C       -2.8202683693   -3.4037046071   -0.7589744777
C       -2.6654396618   -2.9114718930    0.5436741214
C       -2.0401498890   -0.7411342435   -0.3845446919
C       -2.1876624017   -1.2374160983   -1.6858690467
C       -2.5829187368   -2.5767037910   -1.8442189350
C       -2.2771111744   -1.5850388356    0.7028915160
C        1.2999136695    1.5760869071   -0.7057866857
C        1.2691329463    0.0467595032   -0.7668301049
C       -0.0616412940    0.9835345001   -2.4180970402
C       -1.5743383475    0.8275672577   -2.7238256547
O        0.0844663755    1.9341425171   -1.3753200267
O        0.5367885338   -0.2273471659   -1.9717759078
O       -1.9976195896   -0.5262545883   -2.8309803723
F       -2.7314200537   -3.0627312116   -3.0977680737
Br      -2.0222904457   -0.8817322067    2.4733942640
H       -3.1224917629   -4.4310401881   -0.9382066429
H       -2.8406607024   -3.5506158688    1.4015406412
H       -1.7233892730    0.2792084275   -0.2122536885
H        1.2615382509    1.9839520219    0.3055201452
H        2.1667644876    1.9882056313   -1.2400248986
H        2.2625307182   -0.4027800149   -0.8470875653
H        0.7371623521   -0.3879750236    0.0869829878
H        0.4824909042    1.3218473947   -3.3131335664
H       -1.7960347339    1.2640604725   -3.6990669510
H       -2.1503114803    1.3681786984   -1.9666185964
25   
Generated by ForceBalance from scan.xyz: Frame 12 of 24
C       -3.1772384891   -2.5146548032   -1.7740528060
C       -3.3624136402   -1.8277816443   -0.5664974355
C       -2.2173428707    0.1045120553   -1.5271846709
C       -2.0259476462   -0.5872928004   -2.7293818968
C       -2.5214671845   -1.8993287454   -2.8272543100
C       -2.8770268042   -0.5276038203   -0.4703496047
C        1.1492029962    1.7475832983   -0.8228525446
C        1.1338503914    0.2257071194   -0.9952096158
C        0.4689461374    1.2959260403   -2.9421906972
C       -0.8370978942    1.2088829856   -3.7769531534
O        0.2600870453    2.1886826550   -1.8558341162
O        0.8463352979    0.0436460639   -2.3912839380
O       -1.4082540770   -0.0924329976   -3.8357503803
F       -2.3460109723   -2.5720480759   -3.9872652120
Br      -3.0868603863    0.4411202062    1.1763160942
H       -3.5376689609   -3.5308278241   -1.9021876930
H       -3.8673112003   -2.3011585172    0.2679229501
H       -1.8355382679    1.1093809188   -1.4011429435
H        0.7512848109    2.0891483401    0.1340927480
H        2.1525669015    2.1664650687   -0.9788344770
H        2.0952067818   -0.2427698497   -0.7671278781
H        0.3430841873   -0.2464061529   -0.4026098792
H        1.2954891677    1.6679943367   -3.5673365550
H       -0.6214138264    1.4518863770   -4.8182933614
H       -1.5521018802    1.9436387095   -3.3914455234
25   
Generated by ForceBalance from scan.xyz: Frame 13 of 24
C       -3.1217792472   -2.4543685940   -1.7464018260
C       -3.3743162861   -1.7095513156   -0.5861525457
C       -2.2306706380    0.1985400824   -1.5993841468
C       -1.9699041665   -0.5513463254   -2.7522187842
C       -2.4330569534   -1.8790862329   -2.8009182609
C       -2.9212900366   -0.3951908653   -0.5394899506
C        1.0389468145    1.6237119533   -0.8026699138
C        1.1942078808    0.1522801381   -1.1841870306
C        0.5127125520    1.3988471620   -3.0171717496
C       -0.7582077955    1.2022499107   -3.8822227944
O        0.1840873377    2.1244240251   -1.8387768840
O        1.1011628847    0.1708637602   -2.6176126498
O       -1.3095225554   -0.1096249000   -3.8547860200
F       -2.1917950095   -2.6069298997   -3.9144667555
Br      -3.2199259171    0.6505136242    1.0448230182
H       -3.4545029214   -3.4840427934   -1.8358378667
H       -3.9045634778   -2.1506562074    0.2502552912
H       -1.8714207019    1.2152524987   -1.5125147574
H        0.5377295269    1.7833040741    0.1538007335
H        2.0007331030    2.1535257808   -0.8139518351
H        2.1630861730   -0.2698687022   -0.9059320583
H        0.3882375218   -0.4618468734   -0.7681608581
H        1.2572019046    1.9656749310   -3.5970751276
H       -0.4991520685    1.3502377407   -4.9317952925
H       -1.4994816306    1.9580287255   -3.5982386661
25   
Generated by ForceBalance from scan.xyz: Frame 14 of 24
C       -2.8709719980   -2.7174164428   -1.1203720415
C       -3.1020409399   -2.0057184425    0.0640739312
C       -2.0048367754   -0.0576335878   -0.9237007689
C       -1.7803614795   -0.7706820161   -2.1082096502
C       -2.2236755848   -2.1038047862   -2.1800793958
C       -2.6627990474   -0.6871524321    0.1363205197
C        1.3094392524    1.1330183029   -0.6259082854
C        1.6093489042   -0.0553936451   -1.5359666437
C        0.4991230908    1.5301932168   -2.7682514079
C       -0.8676113090    1.1014730512   -3.3390215720
O        0.3613909280    1.8939451368   -1.3895458020
O        1.4783837722    0.5165485031   -2.8437608488
O       -1.1462683129   -0.2937025961   -3.2147385961
F       -2.0059575035   -2.7977806434   -3.3201425369
Br      -2.9429174795    0.3097838565    1.7537604185
H       -3.1943881738   -3.7482583189   -1.2282852550
H       -3.6065516875   -2.4745205590    0.9013410933
H       -1.6421056590    0.9570972246   -0.8200554579
H        0.8411730598    0.8517900967    0.3206519615
H        2.2041618231    1.7373677745   -0.4334480922
H        2.6269182221   -0.4391994577   -1.4400522541
H        0.8908712046   -0.8702394401   -1.3950425170
H        0.8609533892    2.3969498785   -3.3370801221
H       -0.8527752073    1.2712353083   -4.4187440197
H       -1.6602798568    1.7172697378   -2.9017814238
25   
Generated by ForceBalance from scan.xyz: Frame 15 of 24
C       -2.8584352763   -2.7129128184   -1.0120292104
C       -3.2142864408   -1.9572458822    0.1120709942
C       -2.0411959132   -0.0359887457   -0.8382471608
C       -1.6986584928   -0.7896635051   -1.9679899798
C       -2.1169558242   -2.1309366329   -2.0275112055
C       -2.7969322298   -0.6306665551    0.1755953116
C        1.4613595343    0.9595923418   -0.6860249358
C        1.8709703088    0.0134614268   -1.8140809819
C        0.5017733309    1.6188660732   -2.6985269935
C       -0.8067286273    1.0553556302   -3.2626995533
O        0.4176928684    1.7492608688   -1.2781766658
O        1.6173730373    0.8014731270   -2.9857817425
O       -0.9649546617   -0.3467068801   -3.0282768887
F       -1.7815814442   -2.8661347699   -3.1124021673
Br      -3.2525370953    0.4231381473    1.7150985881
H       -3.1596755596   -3.7514730427   -1.1095448261
H       -3.7969634207   -2.3986239246    0.9127179490
H       -1.6882022305    0.9819121281   -0.7360111381
H        1.0527676160    0.4447098837    0.1872220077
H        2.2863133667    1.6134957363   -0.3795721373
H        2.9319057188   -0.2438836349   -1.8072939165
H        1.2650732696   -0.8983772787   -1.8270046326
H        0.6802934144    2.6051431653   -3.1483564953
H       -0.7785546881    1.1563207761   -4.3513181861
H       -1.6577611330    1.6282177209   -2.8795292082
25   
Generated by ForceBalance from scan.xyz: Frame 16 of 24
C       -2.7345140352   -2.4989573761   -0.7720564528
C       -3.1487361692   -1.6573947944    0.2677154704
C       -2.0106018678    0.2096885135   -0.8231032846
C       -1.6113203320   -0.6300612718   -1.8702444102
C       -1.9827852289   -1.9852723661   -1.8162575293
C       -2.7760321672   -0.3168509730    0.2207258281
C        1.6878057234    0.8329211425   -0.9617016043
C        2.1057409125    0.1472982172   -2.2663487250
C        0.5548543667    1.7446457945   -2.7737520811
C       -0.7364469630    1.1184908120   -3.3061367087
O        0.6010756969    1.6892963145   -1.3530605825
O        1.7124989532    1.1002148006   -3.2664464387
O       -0.8689771465   -0.2614980322   -2.9525251271
F       -1.5891897582   -2.8037252009   -2.8197551417
Br      -3.3085372778    0.8536398667    1.6464902874
H       -2.9983417480   -3.5521015015   -0.7818836295
H       -3.7404406918   -2.0441624636    1.0896907877
H       -1.6899417570    1.2420727183   -0.7971936250
H        1.3265464441    0.1313152090   -0.2049499822
H        2.4922899417    1.4471670759   -0.5419918466
H        3.1838334157   -0.0018755885   -2.3524098653
H        1.5821923396   -0.8018281307   -2.4174866716
H        0.5938635541    2.7917268850   -3.1040355720
H       -0.7019536186    1.1401995735   -4.3986612339
H       -1.6033065390    1.6978803486   -2.9699903177
25   
Generated by ForceBalance from scan.xyz: Frame 17 of 24
C       -2.6014064825   -0.9160070539   -5.3586035311
C       -2.5029279763   -2.2464384404   -4.9350312681
C       -2.1618745905   -1.4694551221   -2.6519726575
C       -2.2591260199   -0.1401908514   -3.0753181734
C       -2.4929702199    0.1119294764   -4.4334780431
C       -2.2906305620   -2.5021407515   -3.5805224181
C        1.4769872794   -0.5209670517   -2.0207884192
C        1.1294772409   -0.4911830915   -3.5136027212
C        0.2331062309    1.3357850543   -2.3908246018
C       -1.1910085719    1.8654084257   -2.2722234099
O        0.4780093095    0.3229028529   -1.4403777562
O        0.4744528802    0.7750695178   -3.6835928683
O       -2.1871446549    0.8450729726   -2.1273332868
F       -2.6042785325    1.3955112355   -4.8551596254
Br      -2.1387770093   -4.3175302452   -2.9748866972
H       -2.7714398846   -0.6706675472   -6.4025471206
H       -2.5926056181   -3.0586918977   -5.6478002380
H       -1.9727737557   -1.6607876550   -1.6017298614
H        1.3896695342   -1.5099173185   -1.5675327291
H        2.4792662342   -0.1136275578   -1.8285421828
H        2.0123078444   -0.5270680656   -4.1584106266
H        0.4383460117   -1.2938047496   -3.7899253295
H        0.9307984083    2.1802710532   -2.2476182722
H       -1.3948215538    2.5031013400   -3.1372940660
H       -1.2753357421    2.4599808230   -1.3601037061
25   
Generated by ForceBalance from scan.xyz: Frame 18 of 24
C       -1.9473909978   -0.9713725045   -5.7175585515
C       -1.6342519368   -2.3068854612   -5.4443141869
C       -1.5680375534   -1.7809031504   -3.0672919553
C       -1.8769252593   -0.4440520532   -3.3405958471
C       -2.0769799044   -0.0642377803   -4.6742146253
C       -1.4556849841   -2.6929558445   -4.1150355014
C        1.7381128557   -0.5452467243   -2.3051562695
C        1.5381710363   -0.0991917362   -3.7553588053
C        0.3348974592    1.2392000281   -2.2862214327
C       -1.1600385092    1.5727780162   -2.2734926568
O        0.6020860863    0.0171786835   -1.6385323649
O        0.8357466460    1.1463954741   -3.6263949783
O       -2.0154764081    0.4211168499   -2.2867844189
F       -2.3994831599    1.2220928575   -4.9552837345
Br      -1.0079322956   -4.5162070299   -3.7143937902
H       -2.1030102534   -0.6287021601   -6.7359906343
H       -1.5349497507   -3.0249466985   -6.2508053830
H       -1.4008797785   -2.0665079679   -2.0352744649
H        1.7077721749   -1.6276871680   -2.1676686817
H        2.6672890560   -0.1420559199   -1.8797337286
H        2.4785257886    0.0777759748   -4.2845140720
H        0.9266397121   -0.8118449380   -4.3191747792
H        0.8786996997    2.0650909324   -1.7963746031
H       -1.3690302183    2.2453663436   -3.1094387444
H       -1.4108492139    2.0762423746   -1.3373686641
25   
Generated by ForceBalance from scan.xyz: Frame 19 of 24
C       -1.9104966979   -1.0235148014   -5.7515743983
C       -1.5484751815   -2.3466699776   -5.4831678386
C       -1.4693596057   -1.8191401257   -3.1055227393
C       -1.8205324327   -0.4911701479   -3.3735441322
C       -2.0534567644   -0.1207416123   -4.7048718704
C       -1.3403184501   -2.7254914827   -4.1553247204
C        1.7325222118   -0.6068551988   -2.4165871130
C        1.6256466403    0.0889270730   -3.7710645934
C        0.3860557833    1.2292273118   -2.1820709270
C       -1.1219086022    1.5370734492   -2.3316416419
O        0.6078361606   -0.0787901954   -1.7014301790
O        1.0809134505    1.3714270461   -3.4271587901
O       -1.9658545601    0.3757044620   -2.3220612786
F       -2.4252818404    1.1536208728   -4.9838485872
Br      -0.8290386079   -4.5330722554   -3.7610123842
H       -2.0952866822   -0.6865680090   -6.7670694852
H       -1.4361650786   -3.0616792924   -6.2906889032
H       -1.2796052691   -2.0993691452   -2.0762132593
H        1.6192411327   -1.6918395762   -2.4665338705
H        2.6670341938   -0.3510744372   -1.8998131064
H        2.5898381176    0.2441916689   -4.2608909651
H        0.9488999289   -0.4470931963   -4.4472193198
H        0.8301346022    1.9708713750   -1.5005847159
H       -1.2628539119    2.1337190720   -3.2356681973
H       -1.4631233818    2.1135353140   -1.4693864297
25   
Generated by ForceBalance from scan.xyz: Frame 20 of 24
C       -1.8085896646   -1.1027240521   -5.8269690184
C       -1.4711847160   -2.4299870600   -5.5486940379
C       -1.4063171145   -1.8928357384   -3.1730685797
C       -1.7341756148   -0.5601385165   -3.4491048345
C       -1.9470607014   -0.1929706056   -4.7854874301
C       -1.2816426059   -2.8062905928   -4.2171180205
C        1.7097521647   -0.6098323274   -2.6465398830
C        1.6741909200    0.4241568607   -3.7676076018
C        0.4267176170    1.2100284263   -2.0184906744
C       -1.0669373303    1.4769984609   -2.3804273585
O        0.6672006282   -0.1657418507   -1.7645212698
O        1.3005450253    1.6170620876   -3.0663214341
O       -1.8989336143    0.3076869503   -2.4043431479
F       -2.2979146463    1.0861498474   -5.0754004787
Br      -0.8086206573   -4.6210992407   -3.8098645549
H       -1.9809342048   -0.7679856529   -6.8454384663
H       -1.3648422692   -3.1511446601   -6.3515096764
H       -1.2322192627   -2.1719337319   -2.1406785380
H        1.4700552459   -1.6231799294   -2.9776543299
H        2.6714678821   -0.6054027296   -2.1190250862
H        2.6402351148    0.5999205935   -4.2445551176
H        0.9271182098    0.1656161341   -4.5294491552
H        0.7051657812    1.8052052496   -1.1406908402
H       -1.0997353398    2.0081067929   -3.3343614012
H       -1.5196980229    2.1101563654   -1.6151050588
25   
Generated by ForceBalance from scan.xyz: Frame 21 of 24
C       -2.6084176227   -0.6546950750   -7.2670059952
C       -3.1243224560   -1.9337684366   -7.4847707552
C       -2.9773030728   -2.3722058424   -5.0929012352
C       -2.4531969908   -1.0917216844   -4.8697788174
C       -2.2958580052   -0.2449943351   -5.9756082759
C       -3.3093562639   -2.7738038029   -6.3833712066
C        0.5635427757   -2.5271934459   -5.1542522385
C        1.2188305078   -1.1508918276   -5.2948869319
C        0.2438175037   -1.2395628371   -3.2512343356
C       -0.9054905289   -0.1824796081   -3.2596726027
O       -0.1401278529   -2.4423710719   -3.9031952483
O        1.3840568818   -0.7423701893   -3.9310950579
O       -2.1991365201   -0.7167617373   -3.5802342389
F       -1.8287778359    1.0201999732   -5.7931223283
Br      -4.0190477308   -4.5350390846   -6.6574758649
H       -2.4649844667    0.0417230241   -8.0877376513
H       -3.3814160105   -2.2622250391   -8.4856235304
H       -3.0850502570   -3.0341926166   -4.2417359007
H       -0.1524182163   -2.7463975461   -5.9514489116
H        1.3051759961   -3.3307470429   -5.0903395581
H        2.2045651036   -1.1708103303   -5.7623536174
H        0.5723326967   -0.4480537690   -5.8360640099
H        0.5515819044   -1.4739737698   -2.2282229721
H       -0.6356041257    0.6261696142   -3.9412331896
H       -1.0231789645    0.2382636905   -2.2595397569
25   
Generated by ForceBalance from scan.xyz: Frame 22 of 24
C       -2.4506804631   -0.6984973784   -7.3988105977
C       -2.8724987901   -2.0072437952   -7.6433802048
C       -2.7521229449   -2.4664618125   -5.2540392142
C       -2.3248579632   -1.1563399853   -5.0039648169
C       -2.1966882563   -0.2862581341   -6.0957259620
C       -3.0242159104   -2.8728380031   -6.5571828266
C        0.9356461459   -2.2235351253   -5.1896923335
C        1.6428440885   -0.8782570220   -4.9624076422
C        0.2683170018   -1.2445652320   -3.1981785998
C       -0.8592438511   -0.1915905226   -3.3639792738
O        0.0753506931   -2.3650920578   -4.0476179230
O        1.5163312930   -0.6721360293   -3.5490323808
O       -2.1275908055   -0.7736888898   -3.7048103101
F       -1.8205787833    1.0049935006   -5.8855155318
Br      -3.6030691102   -4.6756223050   -6.8675574617
H       -2.3367639800    0.0166701868   -8.2079801121
H       -3.0832703067   -2.3388443970   -8.6540057996
H       -2.8364988523   -3.1460231634   -4.4142319550
H        0.3332049342   -2.2340792681   -6.1036549597
H        1.6345905042   -3.0656533905   -5.2017365819
H        2.7071013013   -0.8914689894   -5.2031091612
H        1.1569368228   -0.0672822414   -5.5201264440
H        0.3369115810   -1.6019537297   -2.1674990488
H       -0.5591761553    0.5490250164   -4.1065167360
H       -1.0223062035    0.3250859620   -2.4161900504
25   
Generated by ForceBalance from scan.xyz: Frame 23 of 24
C       -0.4346820377   -0.5972105563   -6.9007402251
C       -0.2304018401   -1.9773993607   -6.9685756682
C       -0.7159669135   -2.1301756182   -4.5871960980
C       -0.9154760724   -0.7455059176   -4.5119833031
C       -0.7850469861   -0.0041381059   -5.6950112932
C       -0.3837218375   -2.7258707015   -5.8004352793
C        2.3140333248    1.0135856628   -4.0488222610
C        1.9031333958    2.3888918780   -3.5054290744
C        0.7299155482    0.8099186967   -2.3652150756
C       -0.7348569396    0.9803570621   -2.8103356853
O        1.4807199564    0.0889026515   -3.3335281432
O        1.3396073580    2.0799812112   -2.2222196654
O       -1.3076272180   -0.2415406456   -3.3023134260
F       -0.9976694104    1.3440768345   -5.6819595553
Br      -0.1125561384   -4.6240021205   -5.8612296307
H       -0.3439933716    0.0283907694   -7.7837693124
H        0.0335463504   -2.4524520948   -7.9066690937
H       -0.8121792033   -2.7104755403   -3.6764100684
H        2.1293106413    0.9102699550   -5.1225870224
H        3.3617101311    0.7783167543   -3.8342425327
H        2.7426202331    3.0675980154   -3.3450669165
H        1.1613890271    2.8749624371   -4.1506255016
H        0.7987397797    0.2835723386   -1.4088168991
H       -0.8087737588    1.7765744349   -3.5510154239
H       -1.3454679932    1.2506813169   -1.9465706887
25   
Generated by ForceBalance from scan.xyz: Frame 24 of 24
C       -3.4090676837   -1.9791656741   -5.8007876318
C       -4.3402817923   -1.0611559023   -6.3058733832
C       -3.1025621316    0.7481607298   -5.2278246747
C       -2.1715772148   -0.1704123510   -4.7262391487
C       -2.3507918378   -1.5329948862   -5.0287278187
C       -4.1675338604    0.2864031445   -6.0090505478
C        2.5955572404    1.9012431544   -3.0000684949
C        1.9790986909    3.2673257827   -2.6771500525
C        0.3757700482    1.5980336077   -2.7935738874
C       -0.8916703995    1.5127478651   -3.6256199510
O        1.4904337781    1.1822537247   -3.5518105388
O        0.5913370039    2.9677478296   -2.4472242758
O       -1.0928302308    0.1430491481   -3.9626557933
F       -1.4565320165   -2.4225338825   -4.5431187549
Br      -5.4250775552    1.5666636988   -6.6903691474
H       -3.5009634979   -3.0417553762   -6.0040954613
H       -5.1735143237   -1.3972023794   -6.9125277698
H       -3.0066487950    1.8062688953   -5.0207318907
H        3.3877721354    1.9347199233   -3.7496878429
H        2.9661508369    1.4003268309   -2.0949821250
H        2.4017400892    3.7280835622   -1.7794469082
H        2.0586517214    3.9642850499   -3.5185990781
H        0.2900417391    0.9941231572   -1.8760586790
H       -0.7602258860    2.1217409707   -4.5272127367
H       -1.7337424463    1.9015968457   -3.0399578254
