30   

C        7.4088334641   -5.7624291309    4.4739046734
C        8.5491405147   -9.0747512050    2.0733814041
C        8.9053419558   -8.8686621592    0.7432190298
C        7.5910782769   -8.2542338943    2.6728209454
C        5.8673127783   -6.0690913647    7.1903691106
C        8.3027794203   -7.8389904253    0.0198031734
C        6.7013738109   -6.2892244792    8.2905514671
C        7.2579673150   -3.9502123501    8.3287263964
C        6.9673816577   -7.2088545502    1.9591589340
C        5.7282890481   -4.7838458781    6.6406430749
C        7.4064486805   -5.2310703303    8.8679263429
C        7.3397404510   -7.0047506898    0.6043291398
C        6.4246305089   -3.7100313579    7.2292289536
C        6.1084805353   -5.8316144251    3.8837436596
C        5.9329487567   -6.3757122745    2.6157510687
N        8.4759973163   -5.7347466735    4.9421287349
N        4.8868302623   -4.5573845421    5.5586385749
N        4.9860654064   -5.1563344167    4.4168651868
O        4.7966623889   -6.1701124576    1.9578735073
Cl       8.4513870419   -5.5009778931   10.2401525304
Cl       6.6831493068   -5.6988927651   -0.3665749364
Cl       6.2835621976   -2.0817811037    6.5956901131
H        9.0130026418   -9.8722690513    2.6432567388
H        9.6497468679   -9.5017352566    0.2726991891
H        7.3197048577   -8.4452361682    3.7050950225
H        5.3222757155   -6.8977593462    6.7534436260
H        8.5874270980   -7.6705477011   -1.0123939822
H        6.8065717162   -7.2864447566    8.7015243449
H        7.8022961744   -3.1233465501    8.7682350674
H        4.2291150734   -5.5737502286    2.4801288165
30   

C        7.4340434616   -5.6053752183    4.3806631357
C        8.5235499434   -9.0818163839    2.1415211561
C        8.8648304898   -8.9513005215    0.7986231629
C        7.5795931168   -8.2219729522    2.7067120631
C        6.0069625113   -6.1710822939    7.1476249012
C        8.2624252649   -7.9567154288    0.0284825043
C        6.8699391340   -6.3745896296    8.2281468216
C        7.2417790236   -4.0031568592    8.3699621165
C        6.9521200300   -7.2115240904    1.9464150403
C        5.7573452204   -4.8770681710    6.6618515840
C        7.4966728268   -5.2915274659    8.8479755112
C        7.3132112717   -7.0825385722    0.5765015285
C        6.3766911458   -3.7795881903    7.2916830614
C        6.1170346657   -5.8311998838    3.8741944966
C        5.9375271114   -6.3380708243    2.5859440417
N        8.5160395038   -5.4478952133    4.7843278781
N        4.8778384527   -4.6677101749    5.6068998679
N        4.9678897781   -5.2518213232    4.4577339239
O        4.8528744645   -6.0141993870    1.8923555684
Cl       8.5746217175   -5.5405130746   10.1983356529
Cl       6.6716291154   -5.8240777403   -0.4656496021
Cl       6.0997228106   -2.1401436921    6.7364273457
H        8.9888071621   -9.8508645841    2.7481885266
H        9.5987173643   -9.6147540403    0.3541447278
H        7.3226802296   -8.3551686697    3.7516314568
H        5.5206482586   -7.0191152384    6.6797001757
H        8.5379825477   -7.8459059715   -1.0139615597
H        7.0566992580   -7.3780467486    8.5921487171
H        7.7254713494   -3.1567776879    8.8421278286
H        4.3013604379   -5.4110805724    2.4238224289
30   

C        7.4455351276   -5.4645795599    4.3275162015
C        8.5159613531   -9.0982548953    2.2214719400
C        8.8448588008   -9.0367867548    0.8712824950
C        7.5849325945   -8.2036993582    2.7526693420
C        6.1410984034   -6.2569597770    7.1383737864
C        8.2431297891   -8.0760742534    0.0597199111
C        7.0314489251   -6.4225365225    8.2026901241
C        7.2263325865   -4.0342397010    8.4033329188
C        6.9551407880   -7.2258731479    1.9514355008
C        5.7854248433   -4.9737568036    6.6927733768
C        7.5829265755   -5.3116634150    8.8443468811
C        7.3061474504   -7.1670171030    0.5712626075
C        6.3310742545   -3.8489479932    7.3424988012
C        6.1432556347   -5.8478668214    3.8836756551
C        5.9606342602   -6.3144753670    2.5735965907
N        8.5175315836   -5.1757426977    4.6818310052
N        4.8699419423   -4.8059764347    5.6614243851
N        4.9671835469   -5.3779227126    4.5074170948
O        4.9437916399   -5.8721950354    1.8471299589
Cl       8.6922132526   -5.5137164046   10.1769536885
Cl       6.6752791710   -5.9599210175   -0.5371303840
Cl       5.9242711618   -2.2213240191    6.8343302440
H        8.9815102337   -9.8403992090    2.8605528756
H        9.5692315988   -9.7270279836    0.4527259655
H        7.3412622009   -8.2849036036    3.8059914322
H        5.7115354291   -7.1267041303    6.6550716473
H        8.5105827130   -8.0187731849   -0.9891665020
H        7.2964321766   -7.4181916264    8.5383374392
H        7.6520089244   -3.1662504679    8.8919263523
H        4.4063619623   -5.2617050929    2.3843166169
30   

C        7.4350055742   -5.3207886432    4.2675276226
C        8.4990127503   -9.1107662631    2.2656344270
C        8.8146760840   -9.1138335546    0.9116703715
C        7.5849628645   -8.1816264905    2.7654484319
C        6.2559617881   -6.3248944905    7.1105478245
C        8.2155135233   -8.1836866876    0.0644042458
C        7.1667192039   -6.4447868442    8.1633500504
C        7.1872719522   -4.0528783539    8.4100164811
C        6.9571206831   -7.2304908991    1.9295651226
C        5.7995472321   -5.0637223277    6.6963035374
C        7.6407902366   -5.3088886661    8.8227589648
C        7.2946680024   -7.2400621675    0.5420300860
C        6.2689796824   -3.9139571881    7.3618120964
C        6.1716082716   -5.8533577842    3.8700775049
C        5.9902594090   -6.2756751409    2.5350625248
N        8.4764846433   -4.9056821976    4.5851689654
N        4.8559661636   -4.9470921379    5.6837889801
N        4.9728172355   -5.5022357236    4.5240921097
O        5.0591349430   -5.7133615482    1.7798840878
Cl       8.7730737265   -5.4546908474   10.1432168562
Cl       6.6702358424   -6.0867727842   -0.6265570474
Cl       5.7378697210   -2.3114604612    6.8898019151
H        8.9625996434   -9.8292539580    2.9325714561
H        9.5267026953   -9.8306070992    0.5171919194
H        7.3562474517   -8.2154704661    3.8245820399
H        5.8849505583   -7.2143642119    6.6148518934
H        8.4726481173   -8.1778615395   -0.9886380615
H        7.5063870081   -7.4246548166    8.4773674688
H        7.5531524893   -3.1653998951    8.9119048991
H        4.5383332433   -5.0903226907    2.3186662662
30   

C        7.4209746260   -5.1898542775    4.2369442718
C        8.4407809802   -9.1393224681    2.2860124455
C        8.7346746532   -9.1954827979    0.9290632188
C        7.5608484513   -8.1693535022    2.7685792357
C        6.3798149565   -6.3897079419    7.1081254463
C        8.1451263144   -8.2795040578    0.0607814181
C        7.3118270148   -6.4636352270    8.1461219585
C        7.1787582773   -4.0790359480    8.4272463729
C        6.9454171776   -7.2257864653    1.9131605829
C        5.8331501252   -5.1566954169    6.7210232552
C        7.7194127566   -5.3080963394    8.8157455272
C        7.2572994762   -7.2952101007    0.5189580373
C        6.2368886175   -3.9870005658    7.3948561455
C        6.2083674831   -5.8515453847    3.8791496148
C        6.0295282900   -6.2153145929    2.5129355336
N        8.4203991441   -4.6634511753    4.5228451022
N        4.8625350674   -5.0932656763    5.7302593448
N        4.9983627046   -5.6237193121    4.5618701880
O        5.2064935763   -5.5226940108    1.7432073273
Cl       8.8763677385   -5.3975057006   10.1196343194
Cl       6.6388659177   -6.1812087045   -0.6908818072
Cl       5.5941213782   -2.4170610984    6.9533920288
H        8.8961822351   -9.8475391363    2.9693846929
H        9.4216246552   -9.9432909823    0.5479445990
H        7.3544023756   -8.1654471019    3.8326541561
H        6.0591237108   -7.2947160236    6.6055067885
H        8.3836801184   -8.3177442292   -0.9959724722
H        7.7186368489   -7.4234524308    8.4416037416
H        7.4932486937   -3.1762467753    8.9366307363
H        4.7162538465   -4.8791626733    2.2861291695
30   

C        7.4067228046   -5.0467413213    4.2213712224
C        8.3667301059   -9.1884994553    2.2945547240
C        8.6278946110   -9.3002416791    0.9349527054
C        7.5375873866   -8.1685547888    2.7634040668
C        6.5151567582   -6.4351864163    7.1105620457
C        8.0525760056   -8.3923502391    0.0495366573
C        7.4595895896   -6.4405478549    8.1395974352
C        7.1449756785   -4.0742840638    8.4321545970
C        6.9420502023   -7.2253817291    1.8918604038
C        5.8692825798   -5.2478280110    6.7359722456
C        7.7823501511   -5.2594055578    8.8108014072
C        7.2141703824   -7.3586975078    0.4922010394
C        6.1882329564   -4.0520950621    7.4095368486
C        6.2692662889   -5.8362606944    3.8795692098
C        6.0992000884   -6.1464907901    2.4838271896
N        8.3429931207   -4.4085797347    4.4928333019
N        4.8824840138   -5.2619596329    5.7603092556
N        5.0544278558   -5.7610015121    4.5834878594
O        5.4018599143   -5.3397827690    1.7026473708
Cl       8.9534622388   -5.2643284440   10.1049831708
Cl       6.5985534197   -6.2797134789   -0.7509067055
Cl       5.4213119070   -2.5355197952    6.9801738204
H        8.8098656359   -9.8914455630    2.9913111357
H        9.2771970833  -10.0860983722    0.5645387698
H        7.3619002692   -8.1250879184    3.8319217668
H        6.2593239462   -7.3602600486    6.6072892980
H        8.2627047001   -8.4772525338   -1.0105450413
H        7.9412625806   -7.3673961051    8.4275908426
H        7.3938466150   -3.1516453747    8.9422609812
H        4.9555408058   -4.6631417360    2.2427320508
30   

C        5.9372704288   -7.1171198855    5.0130479338
C        9.3861541069   -7.1033387015    1.5423572291
C        9.2325891234   -7.7586744749    0.3279216930
C        8.2621158656   -6.6940390080    2.2601823129
C        5.6958447542   -4.9870190120    7.6607776161
C        7.9522069074   -7.9929807308   -0.1666143492
C        6.2822464761   -5.4563823676    8.8386576523
C        8.4543421523   -5.2373542715    7.8316473184
C        6.9459003004   -6.9250883168    1.7933478024
C        6.4819200598   -4.6494241404    6.5501513244
C        7.6687433386   -5.5836122951    8.9348053963
C        6.8044013779   -7.5895761988    0.5318332176
C        7.8850345762   -4.7696946503    6.6407807656
C        6.0752307887   -6.0981059409    4.0302329080
C        5.8021410072   -6.4972657289    2.6513144460
N        5.8086474440   -7.9589701147    5.8082500755
N        5.8621890975   -4.1360394014    5.4208263980
N        5.8415286879   -4.7354664749    4.2782512462
O        4.5589541808   -6.6823349599    2.2491925103
Cl       8.4101803026   -6.1500774429   10.4098651902
Cl       5.2673583082   -7.9740645681   -0.2289650979
Cl       8.9376188137   -4.3016125241    5.3192819497
H       10.3786071268   -6.9130048105    1.9359250118
H       10.1022365752   -8.0865201966   -0.2310734737
H        8.4394551775   -6.1895272500    3.2016396133
H        4.6177090218   -4.8872688240    7.6001894141
H        7.8343364382   -8.5062373586   -1.1140640587
H        5.6600614499   -5.7212643854    9.6859688010
H        9.5314274238   -5.3210947722    7.9031172381
H        3.9386817176   -6.3899238241    2.9398832484
30   

C        6.0588896918   -7.0799740361    4.8954892470
C        9.4112689415   -7.2112784338    1.6189387699
C        9.2437244053   -7.9585095485    0.4601875636
C        8.2980247609   -6.6871801645    2.2767245247
C        5.6755010394   -5.1208017870    7.6995320003
C        7.9606911885   -8.1739117284   -0.0369727044
C        6.3660597557   -5.5756018204    8.8252543670
C        8.4499310925   -5.1042122805    7.7232855612
C        6.9807345425   -6.8898426435    1.8012229981
C        6.3639573593   -4.6641626007    6.5669674896
C        7.7612733425   -5.5694261487    8.8473488627
C        6.8241689484   -7.6572769099    0.6027081893
C        7.7759619798   -4.6485843283    6.5830395148
C        6.0720869798   -5.9986020590    3.9689482899
C        5.8487993106   -6.3170070767    2.5849664348
N        6.0435958993   -7.9709601050    5.6462962131
N        5.6309694907   -4.1786293544    5.4933296482
N        5.6506579240   -4.7024898614    4.3137980983
O        4.6222717858   -6.3242527587    2.0889644088
Cl       8.6309813821   -6.1189493474   10.2574027464
Cl       5.2776381852   -8.0521672597   -0.1324836695
Cl       8.7094186296   -4.0296289723    5.2337048396
H       10.4059133998   -7.0366655615    2.0141848083
H       10.1044148334   -8.3740483074   -0.0524575143
H        8.4805189123   -6.1080370900    3.1739093234
H        4.5910480341   -5.1273837940    7.6962376362
H        7.8313949932   -8.7634807869   -0.9373507397
H        5.8179655066   -5.9340534257    9.6891853048
H        9.5323458956   -5.0848650539    7.7385117992
H        4.0041634703   -5.9401976624    2.7356951585
30   

C        6.2060101107   -7.0313569893    4.8434914631
C        9.3974265701   -7.2846413942    1.6366024043
C        9.1997779076   -8.0777846174    0.5129294027
C        8.3046109502   -6.6965359268    2.2745550029
C        5.6387957947   -5.1696777974    7.7258692350
C        7.9072361950   -8.2780161790    0.0329647822
C        6.3890630398   -5.5932080169    8.8251079894
C        8.4059164078   -4.9784820294    7.6707297747
C        6.9806612941   -6.8792143407    1.8116634303
C        6.2627356694   -4.6575401089    6.5798146670
C        7.7810588837   -5.5001758429    8.8072553033
C        6.7916650189   -7.6981857205    0.6549064168
C        7.6717798531   -4.5519376565    6.5562366722
C        6.0559800861   -5.9385720667    3.9407602165
C        5.8717650633   -6.2238300139    2.5594249026
N        6.3324978149   -7.9310951541    5.5731608691
N        5.4638068190   -4.2175467606    5.5327627786
N        5.5032856600   -4.7065153978    4.3381026031
O        4.6772973089   -6.0935130708    2.0034830718
Cl       8.7242593372   -6.0137570210   10.1833109017
Cl       5.2237153074   -8.0873798099   -0.0355178848
Cl       8.5271457491   -3.8632227030    5.1885890110
H       10.3993785171   -7.1228458317    2.0185984774
H       10.0443938849   -8.5415799078    0.0151466897
H        8.5047785112   -6.0791901206    3.1426699736
H        4.5573492201   -5.2460233004    7.7531752423
H        7.7538004836   -8.9055517322   -0.8374396733
H        5.8899847810   -5.9962892045    9.6990248171
H        9.4851420628   -4.8931086635    7.6553392798
H        4.0733711024   -5.6556421119    2.6295421396
30   

C        6.3706007104   -6.9658032570    4.8205047074
C        9.3953737605   -7.3239799205    1.6235976611
C        9.1620267586   -8.1693626686    0.5447549906
C        8.3242733797   -6.6918855593    2.2568997268
C        5.5713273142   -5.2017665717    7.7508231767
C        7.8557201771   -8.3800499790    0.1066888141
C        6.3509748378   -5.5895458208    8.8426784938
C        8.3230575134   -4.8573888411    7.6797431349
C        6.9899622043   -6.8825036366    1.8317202039
C        6.1576265128   -4.6496733476    6.6035477085
C        7.7355597610   -5.4207260301    8.8163759600
C        6.7628464418   -7.7569255346    0.7265711343
C        7.5590812364   -4.4639733796    6.5727223031
C        6.0492721750   -5.8971223467    3.9316857094
C        5.9034578389   -6.1698924152    2.5549107317
N        6.6425080100   -7.8449516309    5.5355580692
N        5.3248762531   -4.2580038916    5.5628030619
N        5.3900003656   -4.7276005835    4.3607121881
O        4.7534202035   -5.9223863732    1.9451245803
Cl       8.7147744203   -5.8937228679   10.1819017230
Cl       5.1683216690   -8.1642993982    0.1130252069
Cl       8.3677029395   -3.7240240608    5.2030819682
H       10.4079471625   -7.1548605156    1.9729670724
H        9.9896284539   -8.6661211017    0.0502130432
H        8.5452842215   -6.0310429096    3.0876835559
H        4.4960557795   -5.3386479244    7.7843276031
H        7.6737957748   -9.0494363030   -0.7262187977
H        5.8806741559   -6.0250577644    9.7169890395
H        9.3961318414   -4.7148337717    7.6577603136
H        4.1603115372   -5.4483467588    2.5554383957
30   

C        6.5039044237   -6.9209392499    4.8000522386
C        9.3987544856   -7.3817497314    1.6042730741
C        9.1304541567   -8.2522266128    0.5528821907
C        8.3505593670   -6.7130677640    2.2389108524
C        5.5166064596   -5.2773417164    7.7678329356
C        7.8123151499   -8.4525796952    0.1446253525
C        6.3259565506   -5.6227493490    8.8521731072
C        8.2396290888   -4.7541267993    7.6857151280
C        7.0073669529   -6.8930549208    1.8409466299
C        6.0586891484   -4.6793574616    6.6219896098
C        7.6966095725   -5.3652121925    8.8198585676
C        6.7435579694   -7.7925532830    0.7679039056
C        7.4450971348   -4.4003887293    6.5864947847
C        6.0368460989   -5.8959649625    3.9230356869
C        5.9411662511   -6.1374189606    2.5459636769
N        6.8982361984   -7.7636235931    5.5020240732
N        5.1942640627   -4.3415707863    5.5876180646
N        5.2841343987   -4.7927956308    4.3794136057
O        4.8602673212   -5.7600487129    1.8765186714
Cl       8.7125676174   -5.7889941888   10.1747503014
Cl       5.1251785942   -8.1826366390    0.2095562583
Cl       8.1969203957   -3.5995105459    5.2185870706
H       10.4204494017   -7.2208232891    1.9301404978
H        9.9401968238   -8.7762547351    0.0569297277
H        8.5933318809   -6.0305979545    3.0461157216
H        4.4527798320   -5.4844493246    7.8054575181
H        7.6024993439   -9.1413216183   -0.6656017846
H        5.8898330280   -6.0954031854    9.7248867511
H        9.3014509326   -4.5439504366    7.6590351915
H        4.2706475227   -5.2644086251    2.4733334542
30   

C        6.6417824224   -6.8402206224    4.8031461460
C        9.4069147157   -7.4097074020    1.5914297571
C        9.0981718517   -8.3004064441    0.5675479435
C        8.3859394448   -6.7060529554    2.2330843898
C        5.4640845970   -5.3520706825    7.8072627629
C        7.7671313335   -8.4855937825    0.1935681953
C        6.2974492991   -5.6515865093    8.8869231429
C        8.1412729423   -4.6292798373    7.7326450196
C        7.0321473562   -6.8734000053    1.8694651527
C        5.9594265437   -4.7012942292    6.6693348926
C        7.6457557632   -5.2950022894    8.8578252027
C        6.7268443983   -7.7898789917    0.8257960420
C        7.3213523522   -4.3182783142    6.6388223764
C        6.0321899392   -5.8753067708    3.9442173457
C        5.9876343418   -6.0835288238    2.5655867613
N        7.1540354873   -7.6323980204    5.4877739985
N        5.0703532222   -4.4194754083    5.6387857191
N        5.1882103501   -4.8494762509    4.4248281802
O        4.9867036294   -5.5830024667    1.8513186224
Cl       8.6917437105   -5.6650396509   10.2056637963
Cl       5.0842042740   -8.1496373481    0.3226356959
Cl       8.0110051644   -3.4459556650    5.2818294541
H       10.4386248243   -7.2598873751    1.8898962881
H        9.8867554421   -8.8509724208    0.0662851075
H        8.6560936431   -6.0066354362    3.0168656273
H        4.4182813305   -5.6368314326    7.8418279485
H        7.5253873939   -9.1884132671   -0.5953490257
H        5.8976765776   -6.1663852026    9.7531421124
H        9.1853268502   -4.3432754074    7.7084420151
H        4.3975467538   -5.0762789505    2.4395992233
30   

C        6.7487598552   -6.7880782302    4.8092849220
C        9.3901331039   -7.4764390863    1.5591573952
C        9.0388858569   -8.3825455115    0.5620135660
C        8.3985935441   -6.7420373140    2.2129232804
C        5.4141183480   -5.4587467726    7.8337934831
C        7.6951161831   -8.5515032400    0.2260517634
C        6.2775405893   -5.6927881071    8.9058984582
C        8.0178937099   -4.5054905026    7.7489685832
C        7.0339732314   -6.8965358613    1.8884202014
C        5.8432040950   -4.7598208741    6.6977913406
C        7.5900096684   -5.2215729716    8.8710447425
C        6.6855721499   -7.8241220791    0.8719648537
C        7.1658949800   -4.2570147536    6.6633490057
C        6.0056774042   -5.9100666458    3.9611116813
C        6.0118548789   -6.0782403188    2.5810984261
N        7.3703999774   -7.5083861891    5.4828515018
N        4.9263549427   -4.5554746298    5.6728959777
N        5.0702766370   -4.9734189855    4.4569515019
O        5.1015829660   -5.4622295959    1.8342575484
Cl       8.6742316590   -5.5137197906   10.2078396736
Cl       5.0204687501   -8.1475439377    0.4231388235
Cl       7.7674345509   -3.3176193754    5.3092357985
H       10.4318382562   -7.3380256231    1.8268535984
H        9.8046483122   -8.9562603635    0.0514214176
H        8.6990327936   -6.0295471268    2.9735517363
H        4.3972464740   -5.8334646634    7.8720518115
H        7.4199719008   -9.2637932301   -0.5431460304
H        5.9296024103   -6.2468054321    9.7702499191
H        9.0336821725   -4.1314821102    7.7202859090
H        4.5075527075   -4.9514546981    2.4143360193
30   

C        6.8955024577   -6.6818074657    4.7914499320
C        9.3837818142   -7.5399691748    1.4765164170
C        8.9757854887   -8.4701699439    0.5233380052
C        8.4330203472   -6.7655579485    2.1450495395
C        5.3680299460   -5.5931566722    7.8164297600
C        7.6164798083   -8.6218684098    0.2447676225
C        6.2388329750   -5.7795611380    8.8919053554
C        7.8719994902   -4.3984722477    7.7950119037
C        7.0547764453   -6.9063515391    1.8796595915
C        5.7414123215   -4.8218824856    6.7082452840
C        7.5021580262   -5.1878769262    8.8882987019
C        6.6489573043   -7.8534258603    0.9069100327
C        7.0104291310   -4.1952215390    6.7072813892
C        6.0229157525   -5.9186130978    3.9547775861
C        6.0666587510   -6.0516126296    2.5735291312
N        7.6229465533   -7.3089989440    5.4523312055
N        4.8229409225   -4.6750748647    5.6752078621
N        5.0062855692   -5.0741990615    4.4575877252
O        5.2483088676   -5.3344237512    1.8103714617
Cl       8.5967666439   -5.4237535629   10.2278096923
Cl       4.9588602057   -8.1369581068    0.5335705745
Cl       7.5336919979   -3.1647239968    5.3876016402
H       10.4377774983   -7.4134774707    1.6980731112
H        9.7098873459   -9.0743464341    0.0015024175
H        8.7751529941   -6.0341407560    2.8691784071
H        4.3903840052   -6.0620085133    7.8292966521
H        7.2970047939   -9.3498991360   -0.4918365342
H        5.9356844021   -6.3910587778    9.7340295088
H        8.8494991971   -3.9325409707    7.7900707165
H        4.6530662235   -4.8164599693    2.3829006851
