22

C      2.77204    2.71383   -1.32384
C      1.79088    1.71699   -1.38385
C      2.87167    3.52502   -0.19450
C      0.89475    1.50480   -0.33433
C      1.00454    2.31772    0.81221
C      1.98510    3.31700    0.86206
C      0.28445   -0.89653    0.35399
C      0.45414   -1.46727   -1.07611
C     -0.17311    0.42856   -0.33778
N     -0.37492   -0.34372   -1.58794
O      0.13598    2.07987    1.84010
Cl     2.08777    4.32531    2.30859
H      3.45663    2.85951   -2.15416
H      1.72999    1.09241   -2.27062
H      3.62125    4.30671   -0.12403
H     -0.52431   -1.37164    0.91235
H      1.17714   -0.83205    0.97758
H      1.50114   -1.45113   -1.41032
H      0.03144   -2.45784   -1.27444
H     -1.10226    0.85327    0.05351
H     -0.06248    0.09731   -2.45000
H      0.30990    2.71972    2.55342
