35

C      7.53036   -1.94791    2.99883
C      6.16167   -1.61457    2.82904
C      7.08385    4.29407   -4.01438
C      6.05314    4.40029   -4.97305
C      8.01346   -2.44880   -1.81784
C      8.31589   -2.23827    1.90366
C      5.60628   -1.57070    1.56721
C      7.06752    3.27623   -3.06892
C      8.56688   -2.50152   -0.55525
C      6.65747   -2.09123   -1.99844
C      4.99707    3.49252   -4.99851
C      7.77521   -2.20577    0.58798
C      6.39399   -1.86214    0.42057
C      6.00681    2.35069   -3.08094
C      5.84817   -1.79490   -0.90675
C      5.80440    1.22779   -2.20079
C      4.97713    2.46944   -4.04139
C      4.65968    0.50280   -2.48628
C      4.00453   -0.60802   -1.80485
N      4.47614   -1.54445   -1.05819
O      6.68937    1.04790   -1.19516
S      3.77467    1.21453   -3.85760
H      7.95713   -1.97545    3.99810
H      5.54966   -1.39628    3.70021
H      7.89587    5.01582   -4.02013
H      6.08174    5.20404   -5.70390
H      8.61953   -2.67606   -2.69076
H      9.36484   -2.49532    2.03147
H      4.55881   -1.32337    1.42819
H      7.85408    3.17828   -2.32687
H      9.61240   -2.76672   -0.42045
H      6.23279   -2.05386   -2.99709
H      4.20697    3.58042   -5.73906
H      2.91916   -0.63323   -1.94259
H      6.60937    0.14815   -0.82293
