43

C     -1.19437    0.89555    8.50218
C     -1.14348   -0.51045    8.39631
C     -1.24843    1.68855    7.35667
C     -1.16078   -1.15586    7.15861
C     -1.25080    1.04933    6.11346
C     -1.22599   -0.34924    6.01732
C     -1.27604    1.59053    4.74421
C     -0.51990   -0.42096    1.75443
C     -0.45730    1.58473   -1.09670
C     -1.37467    0.58292   -0.38599
C      0.37974   -1.12401   -0.40979
C      1.38585   -0.16987   -1.08008
C      0.62062    0.87850   -1.93432
C      2.34231    0.44032   -0.04436
C      1.55318    1.90109   -2.58893
C     -1.50613    0.46269    2.53309
N     -1.30954   -0.74704    4.67238
N     -1.20415    0.46184    3.93653
N     -0.58161   -0.36771    0.39749
O     -1.35921    2.74859    4.32994
O      0.25781   -1.16890    2.36251
O     -0.11967    0.18566   -2.96809
H     -1.18812    1.35730    9.48545
H     -1.09664   -1.10884    9.30260
H     -1.27993    2.77307    7.41154
H     -1.13435   -2.23977    7.08759
H     -1.05411    2.21915   -1.76015
H      0.02143    2.23430   -0.35728
H     -2.09163    1.10149    0.24820
H     -1.94487    0.01788   -1.13048
H     -0.17763   -1.67667   -1.17260
H      0.88753   -1.83207    0.24374
H      1.98562   -0.77372   -1.77732
H      1.81748    1.08336    0.66805
H      3.12768    1.03382   -0.51945
H      2.82433   -0.35210    0.53522
H      2.35014    1.39912   -3.15220
H      2.02664    2.55575   -1.85278
H      0.98115    2.52256   -3.28426
H     -2.53191    0.11151    2.35157
H     -1.44671    1.51023    2.22877
H     -0.57649   -1.38077    4.34412
H      0.52246   -0.24092   -3.55814
