39

C     -3.55929   -4.90050    5.57217
C      3.48462   -1.60962   -1.54172
C     -2.74092   -5.05058    4.47092
C      2.44616   -1.06981   -0.78521
C     -4.06765   -3.62666    5.92468
C     -1.28535   -2.85122    1.81686
C      4.70881   -0.93222   -1.58445
C      3.92433    0.72086   -0.21079
C     -2.40631   -3.92032    3.68295
C      2.65735    0.13210   -0.09224
C     -2.90441   -2.62132    4.01299
C     -1.56532   -3.99537    2.53305
C     -3.74083   -2.53166    5.16028
C     -1.84207   -1.61695    2.24390
C      0.91300   -0.16207    1.79904
C      0.17292    0.84655    0.09911
C      1.58694    0.77102    0.74846
C     -1.56684   -0.35611    1.44881
N      4.93477    0.21549   -0.93300
N     -2.61841   -1.49246    3.30522
N     -0.23221   -0.34858    0.87451
O     -1.07759   -5.22667    2.20565
F     -4.22786   -1.32095    5.50313
H     -3.82122   -5.76143    6.18052
H      3.35589   -2.53722   -2.09317
H     -2.34732   -6.02282    4.19521
H      1.47819   -1.56239   -0.72477
H     -4.71195   -3.49592    6.78887
H     -0.64336   -2.86155    0.93964
H      5.54003   -1.32796   -2.16641
H      4.13429    1.65652    0.30841
H      1.44268   -1.08308    2.06343
H      0.63953    0.37649    2.71926
H     -0.36509    1.75948    0.39794
H      0.11251    0.72874   -0.98832
H      1.94880    1.71770    1.15391
H     -2.29033   -0.29374    0.62468
H     -1.75267    0.50583    2.11067
H     -0.52185   -5.14668    1.41305
