39

C      3.72350   -4.66961    4.27964
C      1.83580    3.48309   -4.12432
C      3.47616   -3.50019    4.97005
C      1.20700    2.90062   -3.02322
C      3.53787   -4.73233    2.87714
C      2.32442   -0.03417    4.15819
C      2.88950    2.79497   -4.73370
C      2.71263    1.05833   -3.25141
C      3.03236   -2.34994    4.27000
C      1.64518    1.65311   -2.56090
C      2.83416   -2.38250    2.85537
C      2.75579   -1.10590    4.91104
C      3.10650   -3.61559    2.20136
C      2.16253   -0.18951    2.75382
C      0.61701    1.80102   -0.14021
C      1.83918    0.10545   -0.42523
C      0.99043    0.96845   -1.39518
C      1.73613    1.01038    1.93102
N      3.32803    1.60131   -4.31109
N      2.41080   -1.31830    2.11919
N      1.05128    0.66521    0.70358
O      2.93508   -1.05624    6.26228
F      2.93167   -3.68080    0.86416
H      4.06421   -5.55528    4.80819
H      1.52093    4.45074   -4.50569
H      3.61621   -3.44499    6.04406
H      0.38509    3.41079   -2.52503
H      3.72940   -5.64630    2.32309
H      2.10005    0.92274    4.62633
H      3.40356    3.21992   -5.59476
H      3.09273    0.08970   -2.92827
H      1.26813    2.68660   -0.04308
H     -0.42765    2.10248   -0.00235
H      1.80110   -0.98089   -0.50851
H      2.89191    0.42935   -0.40476
H      0.11971    0.39851   -1.73624
H      1.06312    1.63417    2.53151
H      2.64221    1.62446    1.73985
H      2.71587   -0.16556    6.58154
