25

C     -0.64557    1.32641    1.58627
C     -1.62880    1.64191    2.51762
C     -0.72537    0.15742    0.79538
C     -4.60128   -0.40077    3.18033
C     -2.71792    0.76155    2.66148
C     -3.89486    0.74291    3.50476
C     -1.78737   -0.73901    0.90825
C     -2.77030   -0.40603    1.85485
C     -4.29502    1.71526    4.52191
C     -1.89561   -1.99313    0.07674
N     -3.77777    2.90482    4.47593
N     -3.92690   -1.09519    2.19594
N     -5.25802    1.32014    5.44926
O     -4.27027    3.68515    5.57103
H      0.20376    1.99205    1.45546
H     -1.57903    2.54408    3.11671
H      0.06352   -0.05101    0.07593
H     -5.55310   -0.75284    3.55476
H     -1.92184   -2.89272    0.70518
H     -2.80622   -1.99364   -0.53627
H     -1.04363   -2.09003   -0.60092
H     -4.25257   -1.94588    1.76096
H     -5.35889    1.98054    6.21321
H     -5.14917    0.36507    5.76971
H     -3.81832    4.53156    5.43394
