21

C      0.21248    3.73433    1.99014
C      0.52371    2.67639    1.12676
C     -0.46925    3.50442    3.18986
C     -0.55452    1.12484    2.63162
C      0.13362    1.36411    1.42344
C     -0.85418    2.19215    3.47727
C      0.77684    0.40481   -0.97011
C     -0.30432   -0.66539   -1.26568
C      0.44558    0.18804    0.52923
N     -0.72544   -0.69413    0.17536
I     -1.35078    1.69505    5.63307
H      0.51432    4.74756    1.73662
H      1.08303    2.88185    0.21827
H     -0.69703    4.32143    3.86645
H     -0.83462    0.10924    2.89552
H      1.80098    0.18073   -1.28031
H      0.49857    1.39589   -1.33776
H     -1.09238   -0.37215   -1.96610
H      0.09670   -1.63514   -1.57709
H      1.20696   -0.43062    1.02119
H     -1.59021   -0.16747    0.29202
