32

C      0.08336   -5.25297    0.40646
C     -0.38933   -1.07652   -0.58301
C     -0.18578   -6.00898    1.59433
C      0.32679   -1.42010   -1.76908
C     -0.14711   -2.09277    0.35295
C     -0.89127   -5.64982   -0.47053
C      0.55716   -5.99406    2.89511
C      0.42690   -0.70008   -3.07539
C     -0.61562   -2.31499    1.75313
C     -1.23267   -5.25585   -1.86645
C      1.17288   -4.24312    0.18570
N      0.96108   -2.57227   -1.57720
N     -1.23119   -6.79334    1.43990
N      0.66955   -2.95413   -0.29278
N     -1.20098    0.08182   -0.38819
O     -1.79991    0.21323    0.69329
O     -1.26686    0.89957   -1.31948
O     -1.68518   -6.56394    0.12765
H      0.54497   -4.99500    3.34386
H      0.09475   -6.69197    3.59568
H      1.60365   -6.28357    2.75436
H      0.85668    0.29593   -2.93945
H      1.05424   -1.27857   -3.75695
H     -0.56186   -0.55586   -3.51918
H     -1.45814   -3.01516    1.76934
H      0.18353   -2.74148    2.36604
H     -0.94593   -1.37518    2.19086
H     -1.41685   -6.14282   -2.47965
H     -2.14169   -4.64437   -1.88165
H     -0.42245   -4.67327   -2.30767
H      1.73232   -4.08702    1.11251
H      1.88498   -4.56623   -0.57617
