34

C     -0.55239    2.92540    0.77759
C      0.82719    3.12754    0.32235
C     -1.04755    1.68917    0.96999
C      1.56795    2.09354   -0.10880
C     -1.35662   -1.24538   -2.28795
C      2.77921   -0.62059    0.94735
C     -0.98157   -0.70592    0.08214
C      0.26926    0.54118   -1.59888
C     -0.21183    0.44852    0.75542
C      0.96545    0.71396   -0.22742
C     -1.62640   -1.60416   -4.60433
C      3.55881    0.15582    3.03357
N     -0.68071   -0.54024   -1.34421
N      1.98591   -0.33909   -0.13469
O     -2.20128   -2.09942   -2.04974
O      3.48643   -1.61324    1.03788
O     -0.96659   -0.88354   -3.54673
O      2.70063    0.35229    1.89371
H     -1.16567    3.79785    0.99000
H      1.24567    4.13065    0.34339
H     -2.05431    1.55308    1.36037
H      2.59333    2.21835   -0.44490
H     -0.63046   -1.68295    0.43072
H     -2.05883   -0.65882    0.26055
H     -0.24064    1.46910   -1.87520
H      0.97341    0.28296   -2.39226
H      0.17002    0.12159    1.72926
H     -1.20888   -1.20496   -5.52918
H     -2.70555   -1.43790   -4.56781
H     -1.42603   -2.67518   -4.52403
H      3.37620    1.01429    3.68020
H      4.60575    0.12320    2.72374
H      3.30725   -0.77467    3.54757
H      1.91359   -1.11975   -0.77574
