29

C      2.44194   -5.36440    1.04116
C      2.74394   -6.46197    1.85721
C      1.18926   -4.75722    1.12860
C      1.79725   -6.94680    2.76181
C      0.21948   -5.22465    2.02923
C      0.55922   -6.31681    2.82989
C     -0.62110   -2.83610    3.81688
C     -0.11343   -1.66108    5.74181
C      0.12541   -3.17007    5.93146
C     -1.93863   -4.58515    0.82987
C     -1.15061   -4.58642    2.13990
N     -0.33600   -1.61300    4.28434
N     -1.03299   -3.16449    2.60851
O     -0.44618   -3.78101    4.71959
F     -0.35698   -6.78695    3.71628
H      3.17741   -4.99217    0.33463
H      3.71447   -6.94404    1.78697
H      0.96151   -3.91198    0.48296
H      2.00002   -7.79858    3.40352
H     -0.99495   -1.30118    6.27975
H      0.75661   -1.06560    6.02109
H      1.18224   -3.43886    5.94858
H     -0.39517   -3.60391    6.78251
H     -1.41054   -4.04031    0.04064
H     -2.06429   -5.61490    0.49006
H     -2.93045   -4.14431    0.96795
H     -1.72596   -5.10950    2.90364
H     -0.54520   -0.75939    3.78024
H     -1.15625   -2.42480    1.92549
