55

C      0.00729  -10.17215    4.51849
C     -0.45066   -9.65759    5.75325
C     -0.05849   -9.39540    3.37913
C     -0.94352   -8.37145    5.82807
C     -0.72349   -8.11748   -2.53441
C      1.38837   -8.32865   -1.39883
C     -1.15666   -5.97005    2.32814
C     -0.21473   -8.82311   -3.63542
C      1.91063   -9.03095   -2.47965
C     -1.54447   -5.43156    3.57755
C     -0.58689   -8.07653    3.41228
C     -1.01861   -7.54568    4.67411
C      0.06336   -7.85671   -1.41235
C     -0.69060   -7.27047    2.22389
C      1.10459   -9.27321   -3.59824
C     -1.49223   -6.19930    4.71490
C      0.11477  -10.77527  -10.16349
C      3.50756  -11.84668   -9.29418
C     -0.47843   -7.07855   -0.23405
C      0.85798  -10.25858   -8.93977
C      2.22210  -12.41096   -8.70813
C      1.99528  -10.82450   -6.76584
C      0.99666  -10.14213   -5.82861
N     -0.27713   -7.82730    1.00052
N      1.34437  -11.36838   -8.01804
O      1.71165   -9.98937   -4.62733
Cl    -2.01958   -5.49021    6.23612
H      0.42269  -11.17514    4.47006
H     -0.40099  -10.27213    6.64791
H      0.33553   -9.79440    2.44959
H     -1.27766   -7.97269    6.77936
H     -1.75383   -7.77177   -2.56233
H      2.00792   -8.14150   -0.52641
H     -1.25105   -5.33963    1.45164
H     -0.86295   -9.01200   -4.48491
H      2.93462   -9.39291   -2.47541
H     -1.90518   -4.40932    3.63009
H      0.76747  -11.29486  -10.86771
H     -0.71309  -11.43781   -9.88955
H     -0.31547   -9.91813  -10.68784
H      3.32250  -11.11808  -10.08684
H      4.15130  -11.39509   -8.53620
H      4.06282  -12.67620   -9.73986
H      0.06515   -6.13034   -0.14799
H     -1.53579   -6.82356   -0.40924
H      0.20599   -9.63019   -8.33245
H      1.73677   -9.67100   -9.20772
H      2.43052  -13.16584   -7.94703
H      1.60264  -12.87372   -9.47675
H      2.44719  -11.66761   -6.24045
H      2.78323  -10.13515   -7.06794
H      0.66934   -9.16958   -6.21688
H      0.10471  -10.77597   -5.68761
H     -0.55833   -8.79661    0.89802
H      0.50708  -11.87774   -7.71471
