54

C     -1.59723  -10.32400    2.82363
C     -2.46731  -10.11734    3.91863
C     -1.35786   -9.29880    1.93039
C     -3.06171   -8.88714    4.10900
C     -0.44506   -6.96145   -3.42441
C      1.42045   -7.03463   -1.90904
C     -2.32990   -5.72173    1.36604
C      0.35557   -7.46997   -4.45676
C      2.22949   -7.54147   -2.91862
C     -3.14403   -5.50023    2.49971
C     -1.97341   -8.02675    2.07731
C     -2.82990   -7.81125    3.20963
C      0.06691   -6.73311   -2.14619
C     -1.75066   -6.96170    1.12997
C      1.70155   -7.76228   -4.20353
C     -3.40033   -6.51578    3.38834
C      4.95828  -10.45611   -9.48431
C      2.38514   -8.08326  -10.83192
C     -0.80372   -6.19981   -1.03346
C      3.43495  -10.45294   -9.26925
C      3.04279   -8.02082   -9.45319
C      3.25984   -9.05366   -7.26753
C      2.09338   -8.49858   -6.45482
N     -0.92874   -7.19700    0.02887
N      2.86097   -9.24506   -8.66312
O      2.57506   -8.25952   -5.12891
Cl    -4.45211   -6.18869    4.76637
H     -1.10775  -11.28524    2.69184
H     -2.65773  -10.92592    4.61941
H     -0.65612   -9.46858    1.11982
H     -3.71552   -8.72567    4.95890
H     -1.49032   -6.74127   -3.63083
H      1.83654   -6.87136   -0.91782
H     -2.17987   -4.90099    0.67471
H     -0.07935   -7.63343   -5.43596
H      3.27592   -7.77239   -2.74088
H     -3.58502   -4.52073    2.65609
H      5.27241   -9.67984  -10.18930
H      5.49759  -10.29534   -8.54468
H      5.27773  -11.42157   -9.89195
H      2.88618   -8.79133  -11.49894
H      1.33541   -8.38093  -10.74293
H      2.42755   -7.09902  -11.30993
H     -0.35299   -5.29770   -0.60247
H     -1.78603   -5.90662   -1.43587
H      3.15716  -11.29695   -8.62829
H      2.93209  -10.62680  -10.22547
H      2.58715   -7.19962   -8.89051
H      4.11056   -7.75721   -9.56245
H      4.12883   -8.38479   -7.15652
H      3.54773  -10.01596   -6.83402
H      1.27229   -9.22522   -6.44107
H      1.71910   -7.56371   -6.88995
H     -0.98524   -8.13842   -0.34012
