74

C      3.29365    1.67112   -3.21161
C      2.83772    0.65315   -2.37347
C      1.28550    2.91419   -2.78021
C      0.82662    1.89239   -1.94349
C      2.52984    2.82670   -3.41502
C      1.60188    0.75106   -1.71731
C      2.73970    5.35428   -3.85474
C      2.08542   -0.61503    0.36487
C      4.12021    6.00277   -3.93473
C      1.59586    0.42067    1.36448
C      3.00597    3.91096   -4.37727
C      1.11560   -0.37958   -0.80584
C      2.40241    3.67417   -5.76728
C      0.82064   -1.64296   -1.62030
C      6.68428    4.95309   -5.54230
C     -0.20611    1.85842    3.07367
C      7.15485    4.67665   -1.66582
C      7.04336    2.72736   -3.23065
C      8.82393    4.47871   -3.52146
C     -2.62915    1.43001    0.02918
C     -2.58942   -0.11516    2.01269
C     -2.93749    2.35349    2.30449
C      6.41664    5.07996   -4.03395
C     -0.62826    1.48795    1.64134
C      7.35611    4.22954   -3.12624
C     -2.17911    1.27619    1.49860
N      5.00027    4.86327   -3.66283
N      0.13592    0.27824    1.27826
O      4.43729    3.84512   -4.56003
O     -0.11545   -0.00397   -0.15577
H      4.25205    1.58048   -3.71029
H      3.46099   -0.22743   -2.23188
H      0.65587    3.78812   -2.93336
H     -0.13902    1.97620   -1.45905
H      2.39686    5.33116   -2.81937
H      1.99454    5.87962   -4.45744
H      3.13138   -0.47495    0.08921
H      1.95087   -1.62337    0.76767
H      4.29701    6.44564   -4.92781
H      4.27779    6.76777   -3.16950
H      1.92257    0.20330    2.38307
H      1.94271    1.42726    1.07883
H      2.71746    4.46441   -6.45619
H      1.30993    3.66121   -5.71007
H      2.73531    2.71049   -6.16347
H      0.44635   -2.43071   -0.96037
H      1.72296   -1.99877   -2.12668
H      0.06452   -1.43220   -2.38189
H      6.67370    3.91262   -5.87180
H      7.65403    5.38946   -5.79329
H      5.92174    5.48437   -6.11815
H     -0.44618    1.05633    3.77850
H     -0.70974    2.76861    3.39916
H      0.86652    2.05365    3.13417
H      7.44149    5.72731   -1.53112
H      6.10834    4.56608   -1.36996
H      7.77219    4.07470   -0.98937
H      7.10121    2.36600   -4.26236
H      6.04140    2.51671   -2.85266
H      7.76238    2.15299   -2.63489
H      9.06282    4.05871   -4.50321
H      9.49408    4.01096   -2.79182
H      9.05757    5.55041   -3.54494
H     -2.35349    2.41758   -0.36166
H     -2.18676    0.67160   -0.61462
H     -3.72037    1.34616   -0.03420
H     -2.27740   -0.27042    3.05091
H     -2.14108   -0.90595    1.40764
H     -3.67994   -0.22004    1.97234
H     -2.83164    2.22210    3.38501
H     -4.00652    2.29823    2.07344
H     -2.59934    3.36488    2.04723
H      6.60160    6.12580   -3.75445
H     -0.33978    2.32150    0.97718
