56

C      1.56716   -4.34249   -0.29163
C      2.07917   -3.28985    1.82650
C      1.21174    5.28196   -3.70464
C      2.01269    4.25516   -4.22942
C      0.78185   -5.29375    0.36183
C      1.29905   -4.22840    2.49621
C      0.16848    3.55364   -5.65778
C      2.22509   -3.33077    0.42827
C     -0.09416    5.44698   -4.15361
C     -0.60817    4.57849   -5.13212
C      1.48988    3.39153   -5.20389
C      0.66322   -5.21651    1.74619
C      3.08419   -2.28405   -0.21900
C     -1.14657    6.45310   -3.73271
C     -2.04754    4.93447   -5.44482
C     -2.18127    6.37276   -4.88383
C      4.38271   -1.44141   -2.22832
C      1.87712   -1.54497   -2.29609
C      4.36655   -1.30998   -3.75148
C      1.95874   -1.41119   -3.81734
C      3.15418   -2.21491   -1.73943
C      4.01052    0.84436   -6.01657
C      3.16607   -0.38512   -5.65711
C      3.52231    2.10663   -5.32087
N      3.14349   -0.65540   -4.21841
O      3.68988   -1.47359    0.47532
O      2.19130    2.36487   -5.78113
F     -0.09727   -6.13554    2.38792
H      1.66115   -4.40455   -1.37028
H      2.59233   -2.50523    2.37314
H      1.62791    5.94680   -2.95050
H      3.03213    4.14407   -3.87893
H      0.26927   -6.08249   -0.17994
H      1.17679   -4.20857    3.57484
H     -0.21014    2.87455   -6.41776
H     -1.60228    6.15283   -2.77891
H     -0.74820    7.46344   -3.59332
H     -2.28607    4.86904   -6.51129
H     -2.72508    4.24662   -4.92046
H     -3.19889    6.61101   -4.56080
H     -1.90482    7.08909   -5.66531
H      5.30009   -1.94838   -1.91040
H      4.38881   -0.44802   -1.77249
H      1.77895   -0.54727   -1.85428
H      0.98243   -2.11522   -2.02575
H      5.22949   -0.71815   -4.07020
H      4.47753   -2.31204   -4.21595
H      1.94767   -2.42264   -4.27471
H      1.07301   -0.88162   -4.18243
H      3.20332   -3.23475   -2.14252
H      5.06242    0.69192   -5.74985
H      3.97801    0.98961   -7.10247
H      2.13938   -0.19189   -5.97903
H      3.52362   -1.26122   -6.22993
H      3.51686    1.95381   -4.23591
H      4.17016    2.96020   -5.56189
