25   

C        0.0068803400   -0.0810819771    1.3459008398
C        1.6315915788   -0.6648274863    2.9781618795
C       -0.8535719034   -1.0031496887    1.9414223298
C        1.2903646388    0.0991544980    1.8649608425
C        0.7114608897   -1.5718246654    3.5098646134
C        2.3068155728    1.0640187604    1.3402247223
C        2.8336458595    4.1089757959    0.8928315017
C        2.3050044242   -2.4958919573    5.2195318012
C        2.6594766733    2.9351757373   -0.0658273540
N       -0.5059795842   -1.7384553842    3.0068043847
N        0.9822360087   -2.3719280214    4.5945043823
O        3.4815459098    1.0179538745    1.6971550570
O        1.7633965729    1.9602501259    0.4871598488
H       -0.3312173958    0.4860001100    0.4874228650
H        2.6076863938   -0.5615602146    3.4313667730
H       -1.8459644842   -1.1317049789    1.5250635163
H        1.8632490972    4.5666935139    1.1069456398
H        3.2856276886    3.7729917267    1.8309996257
H        3.4869402331    4.8621234779    0.4427674467
H        3.0576325511   -2.7700249878    4.4726688121
H        2.2829548112   -3.2792426133    5.9837901957
H        2.5914537432   -1.5549729542    5.7006519360
H        3.6356505034    2.4913430819   -0.2915582612
H        2.2423413346    3.3015892458   -1.0090685490
H        0.2079575828   -2.9812745264    4.8332251885
25   

C       -0.0024658364   -0.1855623947    1.2506520710
C        1.6132868913   -0.6612449422    2.9260970329
C       -0.8582975288   -1.0839517086    1.8878659067
C        1.2749854004    0.0322566773    1.7672048216
C        0.6986059746   -1.5484911709    3.4987577857
C        2.2751099011    0.9929847864    1.2060392413
C        2.9399154106    4.0421274215    1.0446186537
C        2.2868280727   -2.3591706374    5.2692588325
C        2.5523383623    3.0061494226   -0.0058420575
N       -0.5119845398   -1.7569807780    2.9943523222
N        0.9676014953   -2.2826220335    4.6294309787
O        3.4802312071    0.8495040110    1.3947143381
O        1.6782889778    2.0174135929    0.5575825281
H       -0.3372310201    0.3365515889    0.3628707362
H        2.5846057133   -0.5170504204    3.3784085601
H       -1.8460849349   -1.2447337757    1.4717608093
H        2.0430505055    4.5190938338    1.4509954668
H        3.4953668715    3.5702026158    1.8607343474
H        3.5734862681    4.8104844740    0.5920577342
H        3.0481919245   -2.6626601540    4.5428808502
H        2.2675928855   -3.1024399085    6.0726288442
H        2.5590271064   -1.3915320262    5.7033341561
H        3.4543457219    2.5440476168   -0.4226655904
H        2.0328630884    3.5071432043   -0.8287204275
H        0.1986078873   -2.8882615558    4.8934232935
25   

C       -0.0021574476   -0.2886243438    1.1555713505
C        1.6014939278   -0.6426243889    2.8713682775
C       -0.8464501704   -1.1728792461    1.8272961591
C        1.2641710229   -0.0203196030    1.6729261234
C        0.6994937982   -1.5202530475    3.4779181733
C        2.2388730825    0.9462395074    1.0763455470
C        3.0669145147    3.9589602240    1.1817647301
C        2.2831566307   -2.2060961282    5.3040832482
C        2.4691805986    3.0817327914    0.0863136849
N       -0.4994291109   -1.7818365461    2.9702526050
N        0.9696523945   -2.1883037776    4.6485063768
O        3.4468735884    0.7278404099    1.0820503168
O        1.6224066748    2.0714178149    0.6528364361
H       -0.3360476703    0.1858790455    0.2412526993
H        2.5641438809   -0.4500675196    3.3239280880
H       -1.8257677089   -1.3751241285    1.4092655994
H        2.2688941311    4.4218879575    1.7698591219
H        3.7012955364    3.3634982930    1.8452635393
H        3.6775525650    4.7480525880    0.7333699954
H        3.0586913139   -2.5265615668    4.6003434645
H        2.2710102444   -2.9113185295    6.1411923663
H        2.5298110982   -1.2135217204    5.6949407935
H        3.2718566871    2.6343155418   -0.5107221160
H        1.8715170404    3.7052997411   -0.5859654261
H        0.2112009328   -2.7980133753    4.9329656653
25   

C       -0.0108765942   -0.4012210780    1.0665663016
C        1.5751150576   -0.6201675352    2.8195098734
C       -0.8342052303   -1.2852233027    1.7643779566
C        1.2360438471   -0.0650175702    1.5894988981
C        0.6954027355   -1.5024030985    3.4516321521
C        2.1794534535    0.9113924770    0.9554244961
C        3.2269090189    3.8390058114    1.2785003345
C        2.2733127755   -2.0506828293    5.3287292693
C        2.4096025928    3.1389521679    0.1974171548
N       -0.4847646923   -1.8299565185    2.9385771979
N        0.9702889053   -2.1075722643    4.6548507919
O        3.3555588269    0.6294488755    0.7488127026
O        1.5883533516    2.1112718599    0.7700226404
H       -0.3455952054    0.0202953898    0.1270936898
H        2.5231796487   -0.3721135371    3.2752119817
H       -1.7984977734   -1.5414218267    1.3410377358
H        2.5618646079    4.2652766371    2.0354720534
H        3.9103513207    3.1325185368    1.7591345236
H        3.8172715219    4.6453121804    0.8335867910
H        3.0707693645   -2.3701772699    4.6494773196
H        2.2739133046   -2.7219658660    6.1933860380
H        2.4775439030   -1.0348583152    5.6825474758
H        3.0789783796    2.7286254446   -0.5671040127
H        1.7631466955    3.8724661097   -0.2945861760
H        0.2299923738   -2.7324867604    4.9539137676
25   

C       -0.0356938288   -0.5032010543    0.9955174288
C        1.5073228748   -0.5633423129    2.7973350023
C       -0.8241106269   -1.4123555131    1.7013168769
C        1.1693194218   -0.0679607045    1.5422480382
C        0.6649951956   -1.4768931858    3.4361058242
C        2.0741851249    0.9292091628    0.8797495816
C        3.3788902753    3.7274220693    1.3408463472
C        2.2236984213   -1.8757482661    5.3663334525
C        2.3405056795    3.2165352867    0.3469476299
N       -0.4778139031   -1.8933545541    2.9038162428
N        0.9426224401   -2.0258333589    4.6653640760
O        3.1685430940    0.6076392750    0.4290687834
O        1.5506166020    2.1719013569    0.9327287296
H       -0.3643226982   -0.1413055198    0.0295008139
H        2.4256171200   -0.2441969426    3.2687631536
H       -1.7565207883   -1.7442420238    1.2595222226
H        2.8849390867    4.0903912255    2.2470821923
H        4.0774148655    2.9289802069    1.6087992867
H        3.9460456012    4.5497559642    0.8950807774
H        3.0545073004   -2.1631924273    4.7132377273
H        2.2434429174   -2.5255029804    6.2470689765
H        2.3591465666   -0.8415428600    5.6992601720
H        2.8385914671    2.8697691058   -0.5655017077
H        1.6787585112    4.0412736941    0.0642388222
H        0.2336721818   -2.6863597632    4.9640317100
25   

C       -0.0350449959   -0.6214214692    0.9241987342
C        1.4465039748   -0.5115178132    2.7729245118
C       -0.7698952454   -1.5754854973    1.6283452753
C        1.1049630317   -0.0657313930    1.5003941698
C        0.6611543102   -1.4765358541    3.4088659351
C        1.9627876354    0.9576757738    0.8134414703
C        3.5371199741    3.5983221129    1.3240245168
C        2.1919553305   -1.7150840115    5.3875787650
C        2.2984089202    3.2756364368    0.4941289738
N       -0.4269577464   -1.9963440167    2.8539831723
N        0.9459304755   -1.9770111046    4.6570298884
O        2.9035927731    0.6344003550    0.0965405480
O        1.5505995361    2.2105863176    1.0979212205
H       -0.3526544779   -0.3205581040   -0.0661850010
H        2.3223346093   -0.1116955117    3.2627780554
H       -1.6539525659   -1.9970877052    1.1642113781
H        3.2462136506    3.8705999022    2.3429880309
H        4.2081021628    2.7347833898    1.3614497002
H        4.0761956488    4.4377804767    0.8753576694
H        3.0600258450   -1.9451456331    4.7607423583
H        2.2397516824   -2.3483463494    6.2791920515
H        2.2360792762   -0.6685978115    5.7064261433
H        2.5930454997    3.0201969172   -0.5299692669
H        1.6622880642    4.1646209380    0.4385936483
H        0.2837519415   -2.6871740792    4.9492757036
25   

C       -0.0277070381   -0.7187293795    0.8644961829
C        1.3754249784   -0.4491834931    2.7559473177
C       -0.6980841383   -1.7240514019    1.5612431950
C        1.0313365455   -0.0455824336    1.4697048514
C        0.6585230639   -1.4712848199    3.3836937659
C        1.8358574251    1.0114430516    0.7719612644
C        3.6636304430    3.4768747352    1.2804857212
C        2.1440299225   -1.5498632302    5.4095516970
C        2.2765734044    3.3321219196    0.6618513696
N       -0.3613864840   -2.0930080276    2.8050980547
N        0.9493015296   -1.9303831673    4.6462900227
O        2.5741001739    0.7392423781   -0.1686604125
O        1.5694971188    2.2396673084    1.2656115009
H       -0.3291970515   -0.4701628394   -0.1454339503
H        2.1987159066    0.0306110244    3.2646742298
H       -1.5219945301   -2.2331018491    1.0746530973
H        3.5791403997    3.6306267453    2.3604480578
H        4.2619959389    2.5803348214    1.0918409664
H        4.1782496929    4.3366103302    0.8416335704
H        3.0479776583   -1.7095388794    4.8122547167
H        2.2201211097   -2.1656047232    6.3114180044
H        2.0855135156   -0.4998111816    5.7140204280
H        2.3646622472    3.1958454154   -0.4218608992
H        1.7105530297    4.2537309298    0.8299847959
H        0.3430647282   -2.6922424018    4.9297277887
25   

C       -0.0086039934   -0.7793791371    0.8176301646
C        1.3109634356   -0.3814774233    2.7450938763
C       -0.6141701978   -1.8317467874    1.5037181207
C        0.9698053838   -0.0121552857    1.4471367435
C        0.6627041641   -1.4550452965    3.3615681404
C        1.7132082991    1.0875839118    0.7530705716
C        3.7586083210    3.3800026409    1.2212347163
C        2.0880059097   -1.3943868961    5.4311553750
C        2.2811259034    3.3824325179    0.8405216073
N       -0.2854765484   -2.1625299875    2.7602714466
N        0.9554112474   -1.8820966764    4.6349147409
O        2.2447581534    0.9101320373   -0.3381048129
O        1.6120859241    2.2560960688    1.4249874581
H       -0.2952028366   -0.5667086286   -0.2050204794
H        2.0782801605    0.1663194008    3.2725205289
H       -1.3769190011   -2.4118757466    0.9973585508
H        3.8661705054    3.3978173723    2.3099135428
H        4.2537048080    2.4873171628    0.8269287597
H        4.2513315661    4.2631542541    0.8043231353
H        3.0214125313   -1.4837633070    4.8653604451
H        2.1853586335   -1.9920329968    6.3430942240
H        1.9317160267   -0.3498360053    5.7196445191
H        2.1775474617    3.3824146603   -0.2503457436
H        1.8158673729    4.3006294577    1.2125994337
H        0.4052318898   -2.6887369956    4.9086563335
25   

C        0.0460175736   -0.8233056839    0.7748350564
C        1.2668838117   -0.3354897300    2.7450069431
C       -0.5027224086   -1.9199050416    1.4385714604
C        0.9446829862    0.0132579000    1.4358329513
C        0.6795990863   -1.4563598216    3.3381341460
C        1.6187093045    1.1674762983    0.7636076975
C        3.8305562367    3.3160051600    1.1465346842
C        2.0219018412   -1.2943025284    5.4574008370
C        2.3131557780    3.4149347357    1.0209281898
N       -0.1925138364   -2.2301988011    2.7047365060
N        0.9601848421   -1.8654839932    4.6200813205
O        1.9595848941    1.1094872695   -0.4137392674
O        1.6882116498    2.2482142631    1.5742785240
H       -0.2229521922   -0.6282784395   -0.2563445497
H        1.9732484604    0.2634641191    3.3013938023
H       -1.2035796527   -2.5524608509    0.9062042257
H        4.1138353915    3.1958793933    2.1964896665
H        4.2069319728    2.4625365638    0.5743026527
H        4.2958794761    4.2266567963    0.7582975010
H        2.9803656763   -1.3145171003    4.9279837701
H        2.1281384251   -1.8823299408    6.3745803870
H        1.7775770938   -0.2640162088    5.7359030783
H        2.0345520246    3.5527575090   -0.0298391288
H        1.9639909112    4.2954426684    1.5693466919
H        0.4610904391   -2.7105692389    4.8750641832
25   

C        0.0996739088   -0.8761712651    0.7511833875
C        1.2213561849   -0.3218557174    2.7609736049
C       -0.3999545550   -2.0086551079    1.3924179334
C        0.9256943321    0.0121473110    1.4410200236
C        0.6867554383   -1.4808247441    3.3307469497
C        1.5266111330    1.2178166999    0.7911165458
C        3.8713517812    3.2486368981    1.0126192230
C        1.9345339651   -1.2390340523    5.5002678221
C        2.3601008113    3.4029721396    1.1550618066
N       -0.1120563777   -2.3057487821    2.6665214447
N        0.9475298282   -1.8771954659    4.6209403235
O        1.6811401799    1.2744422676   -0.4252512977
O        1.7815435498    2.2016743472    1.6846133256
H       -0.1533629285   -0.6918550738   -0.2861736164
H        1.8679911066    0.3132864603    3.3488677904
H       -1.0432732335   -2.6801133980    0.8356106756
H        4.3178615062    3.0083537792    1.9821307672
H        4.1091619669    2.4514068591    0.3017193443
H        4.3074236334    4.1823347774    0.6457511282
H        2.9134568795   -1.1974595874    5.0110840803
H        2.0399619221   -1.8191548859    6.4225590208
H        1.6131620655   -0.2266542651    5.7659260796
H        1.9190575104    3.6608067612    0.1856507531
H        2.1465155645    4.2289924399    1.8406471174
H        0.4929403308   -2.7523124310    4.8571036655
25   

C        0.1840437534   -0.9004589300    0.7300061269
C        1.1930840094   -0.3049847980    2.7862085373
C       -0.2740477142   -2.0666857651    1.3404059657
C        0.9360440605    0.0249057155    1.4567222080
C        0.7042530052   -1.4993528557    3.3237162518
C        1.4674248711    1.2804174288    0.8405157902
C        3.9019916093    3.2224377548    0.8634508111
C        1.8449794604   -1.2102393509    5.5461853123
C        2.4412601036    3.3950783221    1.2686289576
N       -0.0180672915   -2.3618531892    2.6212919442
N        0.9331524357   -1.8934627558    4.6207090865
O        1.4447072749    1.4499732394   -0.3752262045
O        1.9096351660    2.1599118889    1.7689637425
H       -0.0468804091   -0.7177244467   -0.3128778080
H        1.7742426264    0.3554337804    3.4130211304
H       -0.8584304597   -2.7657725321    0.7534385791
H        4.4907570411    2.8753021751    1.7177878111
H        3.9899737202    2.4962297608    0.0496030333
H        4.3081206373    4.1786191274    0.5209139726
H        2.8398597279   -1.1098106766    5.0995992224
H        1.9433492920   -1.7925685839    6.4678598114
H        1.4568187188   -0.2198232000    5.8053720319
H        1.8587476475    3.7596020921    0.4150485113
H        2.3742815252    4.1522213336    2.0561508890
H        0.5191829426   -2.7950499373    4.8305063603
25   

C       -0.2165355187   -0.1450523826    1.1671078324
C        1.6037171909   -0.9779460576    2.4288019946
C       -1.0725457409   -0.6644295001    2.1364777655
C        1.1663382290   -0.2939569980    1.2958189243
C        0.6809504511   -1.4630802401    3.3603947495
C        2.1228154593    0.2448069853    0.2788622929
C        4.7248570551    1.9348507340   -0.0428114292
C        2.4251309698   -2.2690246348    4.9830512558
C        4.4007574880    0.4708909146   -0.3241103800
N       -0.6293717621   -1.3147499069    3.2197488317
N        1.0438404140   -2.1312369093    4.5057536218
O        1.7210500460    0.8448500467   -0.7141556853
O        3.4125524201   -0.0123886527    0.5971802610
H       -0.6329992904    0.3739709391    0.3117972908
H        2.6571957790   -1.1409015028    2.6026438813
H       -2.1411791232   -0.5352736632    2.0095908735
H        3.8371901222    2.5579823802   -0.1882734577
H        5.0786443989    2.0507689490    0.9859766443
H        5.5068884369    2.2799065746   -0.7254104900
H        2.9026954783   -1.2867453798    5.0628278619
H        3.0034614591   -2.9048176869    4.3047651586
H        2.4305744138   -2.7313503335    5.9752650669
H        5.3107931047   -0.1263544377   -0.2097904104
H        4.0639252952    0.3569647295   -1.3606516048
H        0.2438688565   -2.3944704878    5.0705497362
25   

C       -0.2422358643   -0.2203955953    1.1243832980
C        1.6037034535   -0.9329982818    2.4227966294
C       -1.0812660305   -0.7914959551    2.0795590497
C        1.1442244831   -0.2867055744    1.2766654845
C        0.6966879334   -1.4741057792    3.3387404132
C        2.0854181185    0.3288016418    0.2899209015
C        4.8122249874    1.8146570007    0.0504839220
C        2.4582192396   -2.1555861369    4.9990816947
C        4.3351832226    0.4497364048   -0.4364518379
N       -0.6176372576   -1.4113990349    3.1723055414
N        1.0801139834   -2.1100896461    4.4956311222
O        1.6814431470    1.0949064489   -0.5802370053
O        3.3595006478   -0.0920785284    0.4652459360
H       -0.6738258827    0.2762343337    0.2633294605
H        2.6627656208   -1.0195227346    2.6169428259
H       -2.1534812244   -0.7281617198    1.9342993184
H        3.9808822270    2.5259728881    0.0696007394
H        5.2328936839    1.7289978785    1.0568350754
H        5.5837591729    2.2003695029   -0.6222092783
H        2.8697058709   -1.1440360148    5.0812746630
H        3.0890243014   -2.7561538701    4.3356279462
H        2.4749522053   -2.6112593062    5.9942447317
H        5.1891853881   -0.2332111988   -0.4834228088
H        3.9308300951    0.5369321382   -1.4511891359
H        0.2883033830   -2.4214247066    5.0473125835
25   

C       -0.2565974442   -0.2887257141    1.0772263790
C        1.5968584167   -0.8835585500    2.4247445353
C       -1.0818249554   -0.9130460809    2.0113278866
C        1.1261735148   -0.2730978143    1.2641520783
C        0.7033468810   -1.4821346451    3.3174986068
C        2.0555403988    0.4204452873    0.3194364472
C        4.8863822907    1.6903011751    0.1066713046
C        2.4622123198   -2.0450775767    5.0239057792
C        4.2563362519    0.4658154991   -0.5503334502
N       -0.6076449924   -1.5042468475    3.1159271065
N        1.0970248175   -2.0891722989    4.4863601229
O        1.6649786853    1.3332109944   -0.4023310451
O        3.2908826578   -0.1320214487    0.3264492013
H       -0.6947608083    0.1875265666    0.2081435428
H        2.6553794699   -0.8941105794    2.6405726833
H       -2.1520945422   -0.9152592635    1.8402499116
H        4.1272449763    2.4548822946    0.2980737665
H        5.3571510060    1.4087179252    1.0533226057
H        5.6485011618    2.1152828960   -0.5529554838
H        2.8061595539   -1.0090878374    5.1119049890
H        3.1463652920   -2.6059078810    4.3787926850
H        2.4831981330   -2.4959610519    6.0211718060
H        5.0387785449   -0.2684561595   -0.7661674358
H        3.8013406450    0.7487407178   -1.5062037120
H        0.3132094793   -2.4496938943    5.0191931197
25   

C       -0.2467571242   -0.3616859216    1.0403240661
C        1.5955274571   -0.8465957482    2.4477772817
C       -1.0606360248   -1.0444663853    1.9434213507
C        1.1245164764   -0.2642390156    1.2737204557
C        0.7133950175   -1.5072009960    3.3071559030
C        2.0434978861    0.5074387316    0.3801788917
C        4.9563319736    1.5598117967    0.1289554002
C        2.4444127430   -1.9547949198    5.0742918071
C        4.1695988027    0.5163247913   -0.6586040061
N       -0.5860544735   -1.6126767069    3.0603712123
N        1.1063902632   -2.0932366161    4.4868251096
O        1.6822488060    1.5477843569   -0.1610090252
O        3.2170185075   -0.1383438967    0.1910952182
H       -0.6842384122    0.0974887006    0.1619841751
H        2.6460244240   -0.7859348978    2.6928082329
H       -2.1226519281   -1.1121871201    1.7378028795
H        4.2875067509    2.3408571548    0.5033313877
H        5.4643966369    1.0877717743    0.9752007185
H        5.7064488996    2.0253217673   -0.5169282272
H        2.7137685272   -0.8975848298    5.1696590019
H        3.1885819523   -2.4694711385    4.4577966258
H        2.4587712616   -2.4003741286    6.0740612679
H        4.8625965455   -0.2329173012   -1.0540328886
H        3.6766499967    0.9897387324   -1.5151132586
H        0.3297830424   -2.5049487560    4.9924487263
25   

C       -0.2263034862   -0.4371276391    1.0142892692
C        1.5843951871   -0.8080383827    2.4970110842
C       -1.0283564271   -1.1828074843    1.8777597198
C        1.1230993140   -0.2501357501    1.3081342066
C        0.7145782694   -1.5356805553    3.3135766094
C        2.0296696126    0.5950169907    0.4669097161
C        4.9956225754    1.4483950228    0.1025637487
C        2.3944690533   -1.8741779909    5.1525318248
C        4.0514175833    0.6176702285   -0.7613104147
N       -0.5629859925   -1.7279780480    3.0102805756
N        1.0973777475   -2.1042948365    4.5050493113
O        1.7184716721    1.7353830459    0.1391611128
O        3.1182500865   -0.0962882479    0.0616781194
H       -0.6566535424    0.0008429371    0.1220099119
H        2.6174548915   -0.6759086713    2.7840028102
H       -2.0737623257   -1.3208391184    1.6271423965
H        4.4363288845    2.2038117032    0.6629398817
H        5.5279614999    0.8016013475    0.8063973842
H        5.7279563312    1.9573681519   -0.5308253649
H        2.5843335683   -0.8010173919    5.2604112457
H        3.1999982444   -2.3331751305    4.5701369821
H        2.3950307298   -2.3210775410    6.1518172150
H        4.6358283347   -0.1048362753   -1.3396195081
H        3.5333145012    1.2662359979   -1.4766087035
H        0.3298982758   -2.5714486627    4.9752011173
25   

C       -0.1719767248   -0.4912873967    0.9950890290
C        1.5738987443   -0.7582040912    2.5761807842
C       -0.9692342989   -1.2985991807    1.8063565659
C        1.1409319227   -0.2152010615    1.3706004875
C        0.7103087509   -1.5513324304    3.3363599440
C        2.0469643606    0.6835808577    0.5815031330
C        5.0414053713    1.3253279616    0.0344901219
C        2.3014366166   -1.7958947131    5.2665002305
C        3.9361578294    0.7405536179   -0.8396120180
N       -0.5328162156   -1.8239381303    2.9597133021
N        1.0641608389   -2.1095886593    4.5416001785
O        1.8398861059    1.8893530298    0.4972628584
O        3.0159077256   -0.0191290977   -0.0433951811
H       -0.5786393255   -0.0778848816    0.0805593853
H        2.5788848874   -0.5626089538    2.9205069786
H       -1.9866044291   -1.5050758111    1.4948183205
H        4.6214960960    2.0203539840    0.7679933651
H        5.5678296373    0.5235720686    0.5609519626
H        5.7588222205    1.8684080397   -0.5875601512
H        2.4103960737   -0.7130776159    5.3890426728
H        3.1698911199   -2.1944400921    4.7320081740
H        2.2731441876   -2.2489365983    6.2626142082
H        4.3829139908    0.0791964221   -1.5886291418
H        3.4228684430    1.5448832147   -1.3784544824
H        0.3039305666   -2.6309117311    4.9641664294
25   

C       -0.0790564658   -0.5503168992    0.9641136379
C        1.5730880981   -0.7082871741    2.6583183946
C       -0.8699695925   -1.4172285978    1.7184250666
C        1.1784032318   -0.1785902047    1.4342456214
C        0.7183616063   -1.5652969288    3.3564815505
C        2.0927780181    0.7569022311    0.6967483108
C        5.0819673882    1.1859798218   -0.0732448547
C        2.1960780840   -1.7222173626    5.3831110771
C        3.8352677003    0.8762054385   -0.8960675544
N       -0.4761771617   -1.9183923046    2.8976958013
N        1.0324324641   -2.1123873661    4.5777654962
O        2.0508303849    1.9700487269    0.8701981072
O        2.9135645128    0.0826175792   -0.1352794962
H       -0.4475238717   -0.1692970047    0.0200214296
H        2.5393153045   -0.4500843399    3.0665223447
H       -1.8456146971   -1.6953705350    1.3370069195
H        4.8208155215    1.7792808228    0.8082937541
H        5.5598821162    0.2561257051    0.2492716189
H        5.7932758211    1.7564799212   -0.6775336041
H        2.2219181355   -0.6358256117    5.5190689250
H        3.1224718592   -2.0545457902    4.9034283792
H        2.1355165931   -2.1867473588    6.3724664180
H        4.1259013635    0.3167759046   -1.7908290242
H        3.3695013175    1.8097440121   -1.2313357225
H        0.2840803180   -2.6880682450    4.9476036456
25   

C       -0.1916876327    0.4776497817    1.9952032240
C        1.5950536691   -0.5203387440    3.1958135702
C       -0.9808968625   -0.6161657470    2.3511026971
C        1.1296548116    0.5444761474    2.4313202580
C        0.7421270136   -1.5840783828    3.5020307394
C        2.0642035502    1.6652146493    2.0816458433
C        2.5879703488    3.8704187362   -0.0467226733
C        2.5119691255   -2.9334693349    4.6712725443
C        3.3551893970    2.6098431455    0.3406598117
N       -0.5205165760   -1.6322345735    3.0943513549
N        1.1324113583   -2.6751360202    4.2414882637
O        2.4469761779    2.4727182537    2.9214852202
O        2.4514899346    1.5905213845    0.7904744583
H       -0.6101069123    1.2678447604    1.3847809817
H        2.6149118079   -0.5169050513    3.5525549590
H       -2.0089544823   -0.6484486027    2.0093745160
H        1.8570319192    3.6403731577   -0.8277008643
H        2.0660317661    4.2827885391    0.8221666528
H        3.2820790447    4.6261384666   -0.4257489675
H        3.1864685249   -2.9405899768    3.8085529494
H        2.5720119490   -3.9120111383    5.1582287294
H        2.8395577891   -2.1730324211    5.3876757300
H        4.0978490467    2.8479463311    1.1104034747
H        3.8987437360    2.2377223453   -0.5334526407
H        0.3886907615   -3.3544843717    4.3572791926
25   

C       -0.1111930863    0.4083998239    1.8778434565
C        1.6169818908   -0.5496494558    3.1933458803
C       -0.9240174658   -0.6627584805    2.2492682892
C        1.1903809309    0.4867981722    2.3689902084
C        0.7426907747   -1.5923740607    3.5105850400
C        2.1632637171    1.5647232543    1.9994691637
C        2.5815915748    3.9770380697    0.0847445185
C        2.4550555603   -2.9060302898    4.7990631049
C        3.2614319133    2.6150107228    0.1870972190
N       -0.5035435165   -1.6478842041    3.0554510065
N        1.0943893185   -2.6548389242    4.3087342116
O        2.7714242556    2.2049230409    2.8511756363
O        2.3353237666    1.6271883076    0.6609239646
H       -0.4944283864    1.1703748829    1.2109108139
H        2.6231140792   -0.5394607003    3.5878620101
H       -1.9368439514   -0.7040793212    1.8656115992
H        1.7171523338    3.9163647302   -0.5832360024
H        2.2488460369    4.3135683232    1.0714089899
H        3.2841739151    4.7140632227   -0.3149112663
H        3.1607947745   -2.9516204078    3.9628944680
H        2.4889541197   -3.8651975084    5.3254726230
H        2.7626643251   -2.1203972295    5.4969055617
H        4.1366834597    2.6840690176    0.8427445371
H        3.6184710689    2.3166161584   -0.8035976664
H        0.3413653058   -3.3241020742    4.4226874981
25   

C       -0.0554134406    0.3215691385    1.7613408924
C        1.6311893514   -0.5846201496    3.1663688020
C       -0.8890188481   -0.7197594448    2.1693980190
C        1.2362900203    0.4113282767    2.2778993148
C        0.7371651078   -1.5994207783    3.5170908831
C        2.2366573867    1.4520709803    1.8829800443
C        2.5848938976    4.0588589239    0.2269726175
C        2.4034685493   -2.8610469931    4.9131231757
C        3.1463934827    2.6503707284    0.0571416669
N       -0.4988868936   -1.6652717710    3.0360519969
N        1.0574943268   -2.6221774989    4.3778977596
O        3.0168975448    1.9369440886    2.6971431924
O        2.2153311514    1.6766181279    0.5502564483
H       -0.4149826997    1.0511111235    1.0464536523
H        2.6280926810   -0.5665122146    3.5840414064
H       -1.8931972395   -0.7705756103    1.7647244171
H        1.6291452698    4.1484061070   -0.2980375485
H        2.4336632079    4.2852346652    1.2868674770
H        3.2843495403    4.7903986656   -0.1879443447
H        3.1279687483   -2.9580100634    4.0976228923
H        2.4141319463   -3.7912678354    5.4900287630
H        2.7038218876   -2.0427180202    5.5756696570
H        4.1116910870    2.5700448442    0.5694526536
H        3.3244828581    2.4607062561   -1.0060104928
H        0.2945709052   -3.2769900846    4.5084205267
25   

C       -0.0131327123    0.2326634225    1.6523120380
C        1.6473094957   -0.6079978665    3.1289485267
C       -0.8614874712   -0.7766175144    2.1073989004
C        1.2752272714    0.3374285869    2.1769973632
C        0.7388005145   -1.5931723463    3.5240681319
C        2.2928626729    1.3492863493    1.7544323251
C        2.6183561301    4.1246357430    0.3855720119
C        2.3739515810   -2.7885811775    5.0121135906
C        3.0333384476    2.7164442031   -0.0299081453
N       -0.4912667036   -1.6754540071    3.0304738651
N        1.0371828118   -2.5675279350    4.4467658995
O        3.2076253276    1.6910241642    2.4992489645
O        2.1031844690    1.7486963904    0.4769495955
H       -0.3610632734    0.9256433836    0.8963125211
H        2.6375901681   -0.5785955601    3.5617671816
H       -1.8615387037   -0.8402600798    1.6944012306
H        1.6097259552    4.3421674681    0.0216687420
H        2.6344250106    4.2223909232    1.4753686272
H        3.3113947281    4.8567756000   -0.0389497283
H        3.1081068599   -2.9356606435    4.2128956788
H        2.3686469024   -3.6862549214    5.6385193316
H        2.6732713386   -1.9381200480    5.6333865914
H        4.0505192446    2.5092628195    0.3210333809
H        3.0463503965    2.6538568023   -1.1225592042
H        0.2666841114   -3.2077188879    4.6026589748
25   

C        0.0079498052    0.1322046829    1.5457536064
C        1.6517749399   -0.6378501857    3.0786437968
C       -0.8513052702   -0.8437444469    2.0501066742
C        1.2967201392    0.2531015914    2.0689075051
C        0.7322684828   -1.5920600665    3.5215158821
C        2.3240808932    1.2414399867    1.6137058883
C        2.6697280285    4.1512835460    0.5571097997
C        2.3446275893   -2.7108659822    5.0920684598
C        2.9106865301    2.7865933426   -0.0810912807
N       -0.4945380447   -1.6929836651    3.0237365748
N        1.0148357118   -2.5135136128    4.5018486937
O        3.3513451376    1.4436901370    2.2565442795
O        1.9878642539    1.8184027493    0.4385311760
H       -0.3350654087    0.7865096527    0.7538592753
H        2.6373281394   -0.5952203245    3.5210118234
H       -1.8497049549   -0.9213357865    1.6354959370
H        1.6402481963    4.4745282243    0.3761513263
H        2.8459028963    4.1055784048    1.6361428728
H        3.3517695006    4.8892378126    0.1249138349
H        3.0850371782   -2.9097307851    4.3100056061
H        2.3265288587   -3.5701853315    5.7699052137
H        2.6448397318   -1.8276945887    5.6654400471
H        3.9476341255    2.4748135989    0.0871467306
H        2.7657419807    2.8659672541   -1.1630582764
H        0.2382432202   -3.1383627151    4.6869143884
25   

C        0.0014647549    0.0232529644    1.4471722894
C        1.6331767285   -0.6590573192    3.0337092134
C       -0.8620722249   -0.9224978278    1.9993762506
C        1.2886617472    0.1698137672    1.9688291751
C        0.7095276995   -1.5862155954    3.5229892611
C        2.3164778368    1.1413422201    1.4788156812
C        2.7401600666    4.1390549980    0.7286298931
C        2.3081456650   -2.6137531086    5.1680695990
C        2.7782792668    2.8526384271   -0.0906054309
N       -0.5130962366   -1.7157040229    3.0217504867
N        0.9826265394   -2.4480322900    4.5587151606
O        3.4312454100    1.2111947230    1.9909388897
O        1.8634430729    1.8860432065    0.4460764992
H       -0.3383535634    0.6338909699    0.6198219734
H        2.6136319827   -0.5916102400    3.4841739311
H       -1.8578818814   -1.0221890350    1.5832610744
H        1.7247786697    4.5463129474    0.7420795727
H        3.0625321953    3.9477227652    1.7566642624
H        3.4115371905    4.8809485807    0.2865761470
H        3.0537017855   -2.8562322862    4.4033845977
H        2.2842892957   -3.4341823766    5.8923202035
H        2.6055668507   -1.7004758270    5.6937470899
H        3.8002506233    2.4580222507   -0.1163859398
H        2.4892494648    3.0759387935   -1.1223791930
H        0.2046077007   -3.0621323156    4.7716545701
