39   

C        1.2307640971   -4.6073199208   -0.3278657279
C        2.3179498818   -3.2647120205    1.3426263062
C        0.7042841001    1.1875328022    1.4244391716
C        2.0626461734   -5.6832840324    0.0048880746
C        3.1309044443   -4.3516165821    1.6874611826
C       -0.0080789365    2.3580282924    1.7022718249
C       -1.4791423566    1.8803799619   -0.1289589290
C        1.3527189807   -3.3630865979    0.3240435436
C        0.3299783597    0.3422362372    0.3689912852
C       -0.7719017584    0.7029459037   -0.4275842088
C        3.0152622052   -5.5663405149    1.0125688549
C       -1.1094815256    2.7091097440    0.9263087027
C       -0.7445121088   -2.4227169701   -0.5765439598
C        0.5248826334   -2.1890954448   -0.0558720529
C        1.1433999936   -0.8482102778    0.0905892497
C        2.4015636298   -0.6031582889   -0.4540573826
C       -1.1815030626   -0.1267443033   -1.6109486195
C       -1.7528169976   -1.4498254006   -1.1335345020
C        3.8197895605   -0.7374119331    0.0752947803
O        3.8182786091   -6.6239477403    1.3268971996
O       -1.8121275765    3.8495225081    1.1846113097
H        0.5350804907   -4.7423939297   -1.1461018791
H        2.4174407438   -2.3412184995    1.8993685944
H        1.5638886667    0.9280934043    2.0313839414
H        1.9813678882   -6.6201730304   -0.5323985969
H        3.8515685774   -4.2392844818    2.4872093798
H        0.3067266741    2.9894655855    2.5234640851
H       -2.3326848121    2.1724178943   -0.7279627749
H       -1.0808522615   -3.4502272610   -0.6199238487
H        2.3709964170    0.2470184875   -1.1270245810
H       -1.9543882625    0.4049982051   -2.1746409252
H       -0.3372052922   -0.2946162401   -2.2869545977
H       -2.2360673124   -1.9392778379   -1.9849045555
H       -2.5325546708   -1.2643592994   -0.3870591749
H        3.8383784580   -0.5658253113    1.1551479256
H        4.4744950607   -0.0034966487   -0.4041124502
H        4.2067154924   -1.7384312280   -0.1367973148
H        4.4234495104   -6.3899200818    2.0500483452
H       -1.4261180952    4.3199308747    1.9422585655
39   

C        1.2414378943   -4.5866065049   -0.2580646828
C        2.3054432054   -3.1745719674    1.3699875190
C        0.6811949296    1.1614669997    1.4292391146
C        2.0508743434   -5.6542481824    0.1481628094
C        3.0961192117   -4.2523663295    1.7878762050
C       -0.0700704025    2.2934822961    1.7593161304
C       -1.5137651667    1.8627582316   -0.1073881060
C        1.3635068828   -3.3131921941    0.3346683466
C        0.3385270405    0.3611304368    0.3298402698
C       -0.7675898497    0.7240576834   -0.4562233130
C        2.9803901167   -5.4981942632    1.1719457004
C       -1.1773609517    2.6483245318    0.9922867246
C       -0.6982102974   -2.3903320960   -0.6710413531
C        0.5567378664   -2.1513510644   -0.1170832371
C        1.1734724134   -0.7982332567   -0.0000884784
C        2.3840404732   -0.5164295812   -0.5967094204
C       -1.1327869895   -0.0667041994   -1.6807306164
C       -1.6884533890   -1.4217224308   -1.2733496274
C        3.8073797990   -0.8948493298   -0.2367578486
O        3.7608604300   -6.5486318834    1.5587124149
O       -1.9181064160    3.7507520699    1.3036019137
H        0.5630534960   -4.7552199711   -1.0844871807
H        2.4034358293   -2.2250093113    1.8816320062
H        1.5435859499    0.8960490757    2.0297396727
H        1.9694563923   -6.6161098045   -0.3430680215
H        3.7991961767   -4.1087209242    2.5982024505
H        0.2183520299    2.8915519292    2.6145460033
H       -2.3718467044    2.1564966962   -0.6989184666
H       -1.0444510492   -3.4150651496   -0.6930097124
H        2.3819829413    0.4407861472   -1.1072470273
H       -1.8994599741    0.4727766075   -2.2455254315
H       -0.2668783327   -0.1917493923   -2.3383571942
H       -2.1075174115   -1.8992722611   -2.1644888124
H       -2.5167228311   -1.2753316817   -0.5718805640
H        3.9598234530   -0.8201324502    0.8433140888
H        4.5133244257   -0.2212023929   -0.7315577904
H        4.0179434271   -1.9181059153   -0.5618973716
H        4.3485575257   -6.2874075167    2.2869320639
H       -1.5562483851    4.1891770371    2.0918099308
39   

C        1.2306529020   -4.5514821598   -0.1989784427
C        2.3243107147   -3.0602098952    1.3365104732
C        0.6550362493    1.1197468564    1.4604670447
C        2.0116719759   -5.6090091115    0.2826105744
C        3.0879718162   -4.1262181508    1.8278509966
C       -0.1378993984    2.2000068708    1.8597850633
C       -1.5519811727    1.8513176195   -0.0487496136
C        1.3799002446   -3.2444277584    0.3094408518
C        0.3464895262    0.3888503146    0.3049072952
C       -0.7646480153    0.7644860345   -0.4647619806
C        2.9417858800   -5.4075612565    1.2977533044
C       -1.2510330141    2.5695701433    1.1069055378
C       -0.6420254166   -2.3319181467   -0.8035207301
C        0.5959214759   -2.0944772689   -0.2103866197
C        1.2018670247   -0.7290488780   -0.0973474485
C        2.3714002128   -0.4007209502   -0.7233489750
C       -1.0836636073    0.0375319188   -1.7418264535
C       -1.6124969671   -1.3569485743   -1.4345978994
C        3.7595811086   -0.9863811654   -0.5909691412
O        3.6933116077   -6.4488659143    1.7592625464
O       -2.0323959899    3.6209547487    1.4877290735
H        0.5503930059   -4.7630621587   -1.0134888775
H        2.4483869352   -2.0818116919    1.7845546696
H        1.5195346601    0.8394044746    2.0510766606
H        1.9060242184   -6.6000715697   -0.1414466092
H        3.7936676341   -3.9451912267    2.6284097355
H        0.1217560740    2.7456232037    2.7582709813
H       -2.4147337517    2.1549443761   -0.6282588078
H       -1.0018584074   -3.3515216012   -0.8206974588
H        2.4066927745    0.6219250270   -1.0837192624
H       -1.8477832541    0.5917474035   -2.2956709572
H       -0.1981101529   -0.0263617114   -2.3817753482
H       -1.9594039581   -1.8024167483   -2.3721039826
H       -2.4885943655   -1.2671538082   -0.7836466490
H        4.0702957369   -0.9991828076    0.4571697792
H        4.4768513426   -0.3826152395   -1.1548128565
H        3.7779529205   -2.0065723427   -0.9862563229
H        4.2822273684   -6.1545254466    2.4737674604
H       -1.6966523724    4.0095079086    2.3128471355
39   

C        1.2415173239   -4.5475046324   -0.1427025364
C        2.3468534289   -3.0066328839    1.3345300045
C        0.6604532983    1.0765246085    1.4681711960
C        1.9979060407   -5.5952774832    0.3963905579
C        3.0870371203   -4.0617772873    1.8816049097
C       -0.1602577519    2.1210712958    1.9047447243
C       -1.5566365953    1.8148081395   -0.0255320848
C        1.4081595873   -3.2209250291    0.3071530600
C        0.3734397450    0.3858336195    0.2830170902
C       -0.7418542600    0.7634052364   -0.4775983638
C        2.9218266761   -5.3635375897    1.4106879219
C       -1.2785167731    2.4934688969    1.1600759352
C       -0.5789711013   -2.3203473294   -0.8869707626
C        0.6453156932   -2.0810111907   -0.2662788395
C        1.2393202888   -0.7078861955   -0.1560251608
C        2.4100669962   -0.3605077898   -0.7494383112
C       -1.0306119263    0.0738790362   -1.7832108002
C       -1.5367720240   -1.3430158988   -1.5377941752
C        3.7218185669   -1.1062034279   -0.8010323597
O        3.6491323038   -6.3954765804    1.9285577593
O       -2.0875493221    3.5087860146    1.5790722429
H        0.5647234224   -4.7873339667   -0.9519980449
H        2.4879443154   -2.0111967540    1.7380631392
H        1.5264884752    0.7907764896    2.0539208266
H        1.8769005972   -6.6033610926    0.0190910765
H        3.7894834123   -3.8558455900    2.6790457506
H        0.0808333403    2.6356775134    2.8264408636
H       -2.4233184162    2.1199462347   -0.5982524300
H       -0.9465750053   -3.3369072457   -0.9004103862
H        2.5089540811    0.6925884876   -0.9902441662
H       -1.7946867726    0.6337964055   -2.3313170349
H       -0.1334580492    0.0493266570   -2.4095915702
H       -1.8352679816   -1.7679672879   -2.5011005868
H       -2.4412545186   -1.2889325967   -0.9227939835
H        4.1436925014   -1.2083853175    0.2024416668
H        4.4382260599   -0.5579728113   -1.4200005252
H        3.5779526287   -2.0996073301   -1.2368207069
H        4.2357879617   -6.0786464152    2.6352950103
H       -1.7693600437    3.8665542260    2.4248465905
39   

C        1.2434417043   -4.4908359989   -0.1573926759
C        2.3446226849   -2.9284803571    1.3003674226
C        0.6248867386    1.0999028512    1.4589617436
C        1.9912142571   -5.5318830230    0.4062568340
C        3.0769716461   -3.9765821134    1.8708488384
C       -0.2141574659    2.1203446368    1.9171364341
C       -1.6029063195    1.8334212149   -0.0224213445
C        1.4115079768   -3.1569175771    0.2702936113
C        0.3503139941    0.4316145762    0.2580817672
C       -0.7696600503    0.8062123779   -0.4957629934
C        2.9090252063   -5.2858724269    1.4226721549
C       -1.3378244005    2.4900325289    1.1788680854
C       -0.5614143992   -2.2688003966   -0.9613790839
C        0.6538854183   -2.0235532367   -0.3253322463
C        1.2261581487   -0.6428978940   -0.2049514004
C        2.4193218151   -0.2848782522   -0.7334402375
C       -1.0392528362    0.1403529589   -1.8182453124
C       -1.5211331764   -1.2924162355   -1.6130400362
C        3.6457043825   -1.1283670117   -0.9632045040
O        3.6279899343   -6.3113712583    1.9644135514
O       -2.1646699785    3.4815457398    1.6195451782
H        0.5709651076   -4.7440194235   -0.9660722449
H        2.4900209092   -1.9266437793    1.6862841811
H        1.4938219111    0.8145487038    2.0406091227
H        1.8677425976   -6.5462793763    0.0470831049
H        3.7756895008   -3.7589990157    2.6684980707
H        0.0165166427    2.6178625061    2.8508291683
H       -2.4734931861    2.1365586690   -0.5901973402
H       -0.9252191062   -3.2864380713   -0.9810590823
H        2.5766775396    0.7805327099   -0.8628883606
H       -1.8084446784    0.6998138680   -2.3595878735
H       -0.1370525604    0.1468352900   -2.4378738249
H       -1.7932317717   -1.7014866361   -2.5909120889
H       -2.4384253320   -1.2676329061   -1.0154311550
H        4.1522043660   -1.3345721947   -0.0164242388
H        4.3442981953   -0.5967301610   -1.6160577436
H        3.3778267137   -2.0734636011   -1.4452897553
H        4.2108824180   -5.9842776892    2.6696037974
H       -1.8545009791    3.8242599355    2.4745016235
39   

C        1.2507099255   -4.4801218206   -0.1452374375
C        2.3429450552   -2.9075338323    1.3082745287
C        0.6149865181    1.1034044960    1.4511354079
C        1.9924070572   -5.5176321655    0.4326829295
C        3.0695456043   -3.9520482060    1.8925546702
C       -0.2335869763    2.1138029227    1.9139332675
C       -1.6170605456    1.8261969727   -0.0296135324
C        1.4172899234   -3.1428464328    0.2726823445
C        0.3475379134    0.4398656169    0.2456986397
C       -0.7745345458    0.8085614143   -0.5070792800
C        2.9029498189   -5.2646910519    1.4538558757
C       -1.3593363566    2.4780779977    1.1759997282
C       -0.5470293438   -2.2640489739   -0.9798196200
C        0.6644920463   -2.0135086264   -0.3384912802
C        1.2265625299   -0.6297051992   -0.2222089154
C        2.4560990557   -0.2834620634   -0.6591222756
C       -1.0345989546    0.1465260128   -1.8335452790
C       -1.5066586348   -1.2913454707   -1.6381043348
C        3.6017059608   -1.1815321602   -1.0401860412
O        3.6164405171   -6.2867713406    2.0091151475
O       -2.1955935826    3.4594257393    1.6216341340
H        0.5840322292   -4.7393342957   -0.9567839536
H        2.4883663892   -1.9027817700    1.6865094680
H        1.4842089914    0.8209635017    2.0337908992
H        1.8698567842   -6.5347830452    0.0810420755
H        3.7630208503   -3.7289046660    2.6932412955
H       -0.0091209113    2.6072150030    2.8513260291
H       -2.4892746567    2.1250181174   -0.5971442283
H       -0.9100969946   -3.2819851733   -0.9956477713
H        2.6703411634    0.7793326531   -0.6911129682
H       -1.8050618052    0.7032454192   -2.3758800603
H       -0.1295035175    0.1625368823   -2.4488614263
H       -1.7668422760   -1.6987011917   -2.6199117686
H       -2.4296363064   -1.2753668319   -1.0490188706
H        4.1543179824   -1.4979808473   -0.1514007590
H        4.2911777959   -0.6422353514   -1.6964291495
H        3.2407599039   -2.0642412144   -1.5767771732
H        4.1952695566   -5.9546604549    2.7153078235
H       -1.8906827017    3.7982393718    2.4800360097
39   

C        1.2867966930   -4.4489334507   -0.1441699411
C        2.3654174020   -2.8760000935    1.3190218058
C        0.6300922159    1.1397269019    1.4377601160
C        2.0279220183   -5.4854600528    0.4360370259
C        3.0914854049   -3.9197348497    1.9055422077
C       -0.2235686082    2.1470263963    1.8977049778
C       -1.6060893446    1.8459429109   -0.0443728696
C        1.4467146857   -3.1118353288    0.2770748491
C        0.3661177381    0.4709289104    0.2338164308
C       -0.7585013018    0.8310527811   -0.5188272752
C        2.9314715828   -5.2319744464    1.4631550532
C       -1.3513418591    2.5030999456    1.1590232482
C       -0.5190410063   -2.2421316556   -0.9773145547
C        0.6925557208   -1.9848725729   -0.3385699529
C        1.2474666777   -0.5987596955   -0.2312019240
C        2.5156016120   -0.2750916368   -0.5591040231
C       -1.0154400945    0.1627516214   -1.8425894069
C       -1.4818757062   -1.2761095231   -1.6409426376
C        3.6001785020   -1.1780802486   -1.0773583548
O        3.6445651012   -6.2531832917    2.0205282719
O       -2.1926706237    3.4812374052    1.6021516407
H        0.6260791917   -4.7082547810   -0.9606010242
H        2.5056146557   -1.8719345152    1.7007932548
H        1.4996558125    0.8630946104    2.0227083078
H        1.9104775055   -6.5021990914    0.0814616040
H        3.7793817824   -3.6962985843    2.7109378191
H       -0.0017237539    2.6440568561    2.8338233040
H       -2.4801479924    2.1382119293   -0.6124492746
H       -0.8799857820   -3.2609694126   -0.9857441179
H        2.7739904738    0.7763699275   -0.4962045445
H       -1.7876778218    0.7143077528   -2.3876452039
H       -0.1098917116    0.1796071019   -2.4572835688
H       -1.7395950439   -1.6889502656   -2.6210970813
H       -2.4054364327   -1.2610835194   -1.0527366648
H        4.1812098017   -1.5952503908   -0.2503278509
H        4.2791252835   -0.6088835125   -1.7191492006
H        3.1766503428   -1.9950583744   -1.6695237031
H        4.2182311551   -5.9209352656    2.7308476555
H       -1.8893089397    3.8240357825    2.4595261495
39   

C        1.2648695198   -4.4553606644   -0.1510843579
C        2.3398216214   -2.8917389981    1.3244474926
C        0.6011436098    1.1433241569    1.4199426262
C        2.0081648490   -5.4949101239    0.4206596705
C        3.0679496483   -3.9387540322    1.9027039096
C       -0.2531317421    2.1531799398    1.8729071596
C       -1.6335173843    1.8397593639   -0.0682373860
C        1.4216585706   -3.1210128512    0.2801970769
C        0.3397749921    0.4671795496    0.2185931112
C       -0.7857173946    0.8216065388   -0.5353859057
C        2.9110442556   -5.2477359052    1.4497366437
C       -1.3797996754    2.5049017596    1.1308245144
C       -0.5522285559   -2.2537631864   -0.9601850511
C        0.6636874697   -1.9930439336   -0.3307286081
C        1.2206781028   -0.6073755438   -0.2402504962
C        2.5205051619   -0.3147035992   -0.4566651193
C       -1.0457090382    0.1410522819   -1.8518211398
C       -1.5159345985   -1.2935350373   -1.6308100396
C        3.5623845272   -1.1811952861   -1.1071506230
O        3.6262498875   -6.2718926498    1.9989414115
O       -2.2217393314    3.4855774709    1.5671404583
H        0.6052541337   -4.7092249617   -0.9702075456
H        2.4767383672   -1.8914693847    1.7167437390
H        1.4684099268    0.8701571265    2.0098932941
H        1.8930808127   -6.5089422072    0.0576589748
H        3.7547710254   -3.7204705940    2.7104125119
H       -0.0328336173    2.6552931478    2.8066847601
H       -2.5077028462    2.1275921089   -0.6383654847
H       -0.9145400082   -3.2722528957   -0.9567357786
H        2.8118193499    0.7179882925   -0.2992890649
H       -1.8175200342    0.6885656735   -2.4015209304
H       -0.1410017080    0.1481720239   -2.4679784410
H       -1.7790069011   -1.7174907567   -2.6047685956
H       -2.4368734130   -1.2688103294   -1.0388022975
H        4.1632044540   -1.6922422507   -0.3496817017
H        4.2289432309   -0.5646521917   -1.7173949265
H        3.0957251067   -1.9277892173   -1.7571405756
H        4.1991789984   -5.9441716914    2.7119420634
H       -1.9192704826    3.8337135967    2.4226781896
39   

C        1.2469439576   -4.4732732063   -0.1640811466
C        2.3196627002   -2.9293548757    1.3331043700
C        0.5825694971    1.1409791707    1.3942836551
C        1.9924062621   -5.5197686712    0.3916816176
C        3.0500298048   -3.9835714827    1.8954633076
C       -0.2696782849    2.1587169924    1.8327503759
C       -1.6410367512    1.8312570860   -0.1115574895
C        1.4016032225   -3.1445321324    0.2853574731
C        0.3271849863    0.4543178549    0.1962651719
C       -0.7955177896    0.8044739874   -0.5640588091
C        2.8957128630   -5.2860053845    1.4232826841
C       -1.3902713492    2.5082625498    1.0812009350
C       -0.5809448490   -2.2740679529   -0.9343160636
C        0.6408792531   -2.0122171541   -0.3162680211
C        1.2073580351   -0.6293784800   -0.2493445511
C        2.5313541953   -0.3726870207   -0.3491022739
C       -1.0597282404    0.1052091442   -1.8689861442
C       -1.5417560668   -1.3200104786   -1.6173745972
C        3.5565162665   -1.1625556930   -1.1145980325
O        3.6134868542   -6.3167296182    1.9566207340
O       -2.2301959286    3.4968365132    1.5033339055
H        0.5880080623   -4.7158399009   -0.9873016428
H        2.4529406879   -1.9363878140    1.7441078220
H        1.4431051662    0.8703235170    1.9950936235
H        1.8790747672   -6.5284723623    0.0135940779
H        3.7362279894   -3.7761058833    2.7065311969
H       -0.0526638397    2.6683700691    2.7632193201
H       -2.5123575831    2.1155153388   -0.6878140357
H       -0.9475562933   -3.2910082663   -0.9149244946
H        2.8426047103    0.6344382756   -0.0950468284
H       -1.8278406756    0.6486356284   -2.4278299967
H       -0.1551768530    0.0932017157   -2.4852931113
H       -1.8136656269   -1.7608316773   -2.5813549877
H       -2.4591018681   -1.2761615029   -1.0208534500
H        4.1713452911   -1.7530319998   -0.4293545080
H        4.2092666453   -0.4849871451   -1.6727924804
H        3.0705617156   -1.8381176096   -1.8253963159
H        4.1876274503   -5.9981619960    2.6727723360
H       -1.9300008886    3.8529596588    2.3563888208
39   

C        1.2328231760   -4.4941263132   -0.1466951766
C        2.3004981833   -2.9773206782    1.3808374032
C        0.5750316454    1.1352129604    1.3882655182
C        1.9783743021   -5.5501025263    0.3904398953
C        3.0309240493   -4.0412915391    1.9247063841
C       -0.2764495443    2.1624762317    1.8049134958
C       -1.6231282866    1.8233873841   -0.1532539715
C        1.3858341856   -3.1731453489    0.3259750100
C        0.3353305207    0.4385907606    0.1909969771
C       -0.7787119051    0.7860804328   -0.5837373976
C        2.8800009559   -5.3346283481    1.4272476159
C       -1.3835671599    2.5121424896    1.0346640443
C       -0.5981906593   -2.2933902780   -0.8787077677
C        0.6284346029   -2.0337317552   -0.2685954759
C        1.2152580444   -0.6581268831   -0.2331263238
C        2.5530117694   -0.4385905814   -0.2165196383
C       -1.0428159709    0.0643763201   -1.8752626726
C       -1.5467928492   -1.3457582106   -1.5867547124
C        3.5873489972   -1.1159534348   -1.0760158063
O        3.5993503246   -6.3740591974    1.9412240304
O       -2.2230597344    3.5097581998    1.4358584551
H        0.5767932654   -4.7209955872   -0.9768708096
H        2.4295790915   -1.9939924544    1.8150672535
H        1.4214759633    0.8655252201    2.0090355998
H        1.8674007970   -6.5514322813   -0.0074205925
H        3.7145135671   -3.8486044952    2.7415831141
H       -0.0697240081    2.6788267992    2.7340496698
H       -2.4870259040    2.1046776498   -0.7419913931
H       -0.9740514219   -3.3065809661   -0.8382915027
H        2.8710740571    0.5352510221    0.1377326245
H       -1.8007405423    0.6048247654   -2.4506457330
H       -0.1349464363    0.0242984209   -2.4854277809
H       -1.8241487513   -1.8082917619   -2.5389218708
H       -2.4637443867   -1.2734682988   -0.9923144181
H        4.2066434143   -1.7812277429   -0.4674673763
H        4.2317589645   -0.3688217391   -1.5484783177
H        3.1045826973   -1.7066283866   -1.8607439971
H        4.1759335878   -6.0673495052    2.6605648590
H       -1.9322845234    3.8722270848    2.2895170001
39   

C        1.1950869790   -4.5107839513   -0.1146976007
C        2.2625132677   -3.0192372522    1.4370926307
C        0.5598724754    1.1496628396    1.3527961231
C        1.9416456976   -5.5752871090    0.4035582227
C        2.9940350134   -4.0920005591    1.9622535475
C       -0.2840678566    2.1972382392    1.7316230776
C       -1.6002682972    1.8327955860   -0.2408526308
C        1.3491974485   -3.1970041889    0.3775785918
C        0.3369998932    0.4311750206    0.1630499629
C       -0.7637069134    0.7739397472   -0.6333315068
C        2.8449581618   -5.3765603706    1.4420305471
C       -1.3709346279    2.5461205133    0.9339984708
C       -0.6354783773   -2.3082538547   -0.8120690777
C        0.5981732881   -2.0510091620   -0.2145758759
C        1.2123121637   -0.6873709240   -0.2253971645
C        2.5565712203   -0.5052566544   -0.1067887229
C       -1.0327594915    0.0139154479   -1.9003230682
C       -1.5682497233   -1.3709657768   -1.5535702171
C        3.6218125278   -1.0369009739   -1.0329322893
O        3.5680510266   -6.4234317169    1.9352553923
O       -2.2030694662    3.5637697353    1.2985100282
H        0.5398102713   -4.7227131282   -0.9496280307
H        2.3894701113   -2.0447713371    1.8910303661
H        1.3853923855    0.8831696225    2.0021371647
H        1.8317005556   -6.5694823259   -0.0120778737
H        3.6776443480   -3.9130155880    2.7822006931
H       -0.0876470694    2.7294254573    2.6540642304
H       -2.4526932145    2.1096784908   -0.8480803010
H       -1.0238305218   -3.3153755743   -0.7415086990
H        2.8702377992    0.4265977634    0.3480792140
H       -1.7774144073    0.5470983995   -2.4993049618
H       -0.1228480235   -0.0692498962   -2.5029775003
H       -1.8591127211   -1.8657619071   -2.4852370053
H       -2.4810955369   -1.2549842646   -0.9596019676
H        4.2443816617   -1.7670544470   -0.5077597257
H        4.2563974450   -0.2200922064   -1.3890214561
H        3.1628542800   -1.5268522034   -1.8971587782
H        4.1527587645   -6.1266334389    2.6521684322
H       -1.9211879190    3.9417624880    2.1484365628
39   

C        1.1581127091   -4.5244974914   -0.0989970921
C        2.2358470052   -3.0532314271    1.4646109470
C        0.5523241301    1.1533825029    1.3133841493
C        1.9050211585   -5.5965398600    0.4025348060
C        2.9678845339   -4.1337932950    1.9732593313
C       -0.2838721333    2.2166923224    1.6636540823
C       -1.5759481402    1.8370180380   -0.3198109280
C        1.3187094694   -3.2161896911    0.4058706284
C        0.3433836415    0.4202510288    0.1277430054
C       -0.7474380848    0.7615230930   -0.6838443704
C        2.8148460871   -5.4116099905    1.4376656399
C       -1.3533379578    2.5675612315    0.8450838670
C       -0.6673880844   -2.3173289758   -0.7672482715
C        0.5744903895   -2.0642095352   -0.1846221240
C        1.2136119653   -0.7142019865   -0.2399069068
C        2.5614861687   -0.5563703900   -0.0514792858
C       -1.0249000607   -0.0274268237   -1.9301343016
C       -1.5867852889   -1.3889470624   -1.5359406321
C        3.6721392449   -0.8851878383   -1.0220480445
O        3.5408708071   -6.4650498735    1.9122652122
O       -2.1775789123    3.6009428307    1.1822210061
H        0.4993555578   -4.7242242934   -0.9343929523
H        2.3660507281   -2.0853389995    1.9310873288
H        1.3568280291    0.8898768835    1.9889287593
H        1.7916304757   -6.5852036596   -0.0252097863
H        3.6558761510   -3.9661718941    2.7919174029
H       -0.0953670345    2.7590603294    2.5818408784
H       -2.4192978004    2.1116787641   -0.9405288610
H       -1.0684736230   -3.3172565789   -0.6678051357
H        2.8720326369    0.2667882219    0.5785068315
H       -1.7595405355    0.5002920733   -2.5460555149
H       -0.1155642888   -0.1463191646   -2.5275626997
H       -1.8903278030   -1.9092024244   -2.4494774276
H       -2.4950334599   -1.2362034282   -0.9431159551
H        4.5724914518   -0.3113384878   -0.7837848956
H        3.3603047689   -0.6448577674   -2.0427354533
H        3.9090063733   -1.9520204431   -0.9698548666
H        4.1378012987   -6.1759417743    2.6221857961
H       -1.9011289568    3.9901635096    2.0288842093
39   

C        1.1030239474   -4.5608003908   -0.0371780367
C        2.2271040579   -3.0719783599    1.4759684119
C        0.5830390712    1.1272158075    1.2544998686
C        1.8334689880   -5.6346752561    0.4841437741
C        2.9428132801   -4.1539721350    2.0047621608
C       -0.2490065959    2.1964737835    1.5954047398
C       -1.5335154735    1.8136331586   -0.3910407438
C        1.2952240330   -3.2431003883    0.4315689659
C        0.3784521303    0.3885580957    0.0697842125
C       -0.7099518720    0.7307826089   -0.7450311739
C        2.7583077990   -5.4417947477    1.5042303554
C       -1.3119759571    2.5495333001    0.7704022433
C       -0.6803813034   -2.3379586294   -0.7548877474
C        0.5689595267   -2.0927535384   -0.1840229951
C        1.2388453049   -0.7599312932   -0.2887327245
C        2.5933197107   -0.6050998287   -0.0853803012
C       -0.9966759036   -0.0733954615   -1.9785820039
C       -1.5805064978   -1.4171562276   -1.5555614692
C        3.7405458128   -0.6805706979   -1.0726426627
O        3.4684194806   -6.4972712125    1.9980457023
O       -2.1330480157    3.5877132893    1.1004023624
H        0.4320090261   -4.7690693501   -0.8606309770
H        2.3815565190   -2.0964842213    1.9177735833
H        1.3757833892    0.8658246316    1.9437468346
H        1.6955704147   -6.6314109822    0.0831618417
H        3.6429988381   -3.9796545292    2.8115827539
H       -0.0630800299    2.7406987698    2.5130714482
H       -2.3745772498    2.0875376555   -1.0151190797
H       -1.1035018752   -3.3244843514   -0.6193621550
H        2.8776487237    0.0951741935    0.6872832785
H       -1.7220438614    0.4541221127   -2.6055424010
H       -0.0880988753   -0.2183340707   -2.5713281062
H       -1.8847028631   -1.9559601809   -2.4580246470
H       -2.4908211699   -1.2370096032   -0.9736375378
H        4.5895108493   -0.0853401640   -0.7232952241
H        3.4198270823   -0.3000560217   -2.0469557863
H        4.0612263982   -1.7200310529   -1.1895526671
H        4.0822002268   -6.2015967891    2.6906545694
H       -1.8611839708    3.9755763989    1.9492220946
