46   

C       -4.9401465830   -4.3097422024   -2.6844671251
C       -5.6844118420   -3.1488793313   -2.3955034006
C       -3.6474643190   -4.4734359122   -2.1578720662
C       -0.7754669347   -4.2030904443   -0.5904431707
C       -5.1395628261   -2.1401390598   -1.5826862133
C        0.3246785694   -3.8084779989    0.1937327975
C       -0.7786450646   -1.7163476577    0.7306825589
C       -3.1328365408   -3.4575216262   -1.3518166452
C       -1.8656418964   -3.3377192569   -0.6700632993
C       -3.8550431141   -2.3087780223   -1.0700865530
C       -1.8722961996   -2.1194667425   -0.0211511671
C        0.3268504722   -2.5700546726    0.8702215196
C       -0.1084061260   -3.1251394207    4.9941236752
C        0.2579546895   -2.4908658047    3.8338772789
C       -1.3307651384   -4.0965065751    5.1166006759
C        0.2212257029   -3.4677014927    7.4030681634
C       -1.0856584556   -1.5121445448    6.5980198150
C       -1.1577949823   -4.1524388491    7.5604625013
C       -2.3730589344   -2.3613270524    6.4420393634
C        0.1592846884   -2.3872347226    6.2998105014
C        1.4290192047   -2.8409161203    2.9444572364
N       -3.0889526336   -1.4679026025   -0.2516238556
N       -2.0030023550   -3.7963606313    6.4009448221
O        1.3862533083   -2.1891415205    1.6613461275
F       -0.3212696908   -1.2847015814    3.6234540290
H       -5.3678613770   -5.0802483799   -3.3154630890
H       -6.6825921239   -3.0308333169   -2.8020502584
H       -3.0654463347   -5.3613927946   -2.3709143037
H       -0.7822535576   -5.1519327843   -1.1128655778
H       -5.7042859506   -1.2449428868   -1.3551007049
H        1.1866667887   -4.4574932920    0.2798453507
H       -0.7862310624   -0.7548292580    1.2251582341
H       -2.0185744242   -3.9379878727    4.2786322937
H       -0.9938737564   -5.1380092529    5.0906413244
H        0.5240848713   -3.0369076498    8.3624488003
H        0.9719709126   -4.2113971472    7.1191166292
H       -1.1427834659   -0.6415174662    5.9381933774
H       -1.0129950332   -1.1359689171    7.6231102541
H       -1.0354656257   -5.2370393315    7.6451478297
H       -1.6452618568   -3.7987931385    8.4756565300
H       -3.0686021199   -2.1502809024    7.2608435204
H       -2.8766784482   -2.0949271903    5.5056387762
H        1.0808073455   -1.7966826642    6.2641927383
H        1.4528667601   -3.9255472100    2.8026264976
H        2.3537391809   -2.5593711072    3.4561179857
H       -3.3617721346   -0.5656194413    0.1197433108
46   

C       -5.0737661037   -4.2343158521   -2.3748694266
C       -5.7866544312   -3.0647675617   -2.0448829175
C       -3.7649502589   -4.4249205298   -1.9003118912
C       -0.8248543468   -4.2121208237   -0.4633953823
C       -5.1950024230   -2.0753362801   -1.2408411501
C        0.3193494690   -3.8382024549    0.2642924193
C       -0.7356942280   -1.7471281941    0.8980773586
C       -3.2035236044   -3.4272963634   -1.1027209857
C       -1.9073557014   -3.3341020181   -0.4747094179
C       -3.8956227505   -2.2716507784   -0.7778124788
C       -1.8690539256   -2.1258122607    0.1926671605
C        0.3695684040   -2.6101754505    0.9558351731
C       -0.0444380143   -3.0815836873    4.9806327521
C        0.4110045791   -2.4188457199    3.8819365255
C       -1.1677434850   -4.1601487085    4.9258018603
C       -0.0526074205   -3.4121297537    7.4147753081
C       -1.4091374364   -1.5837827287    6.4145640392
C       -1.3673526305   -4.2267289872    7.3667339976
C       -2.5678778973   -2.5517121842    6.0674206715
C       -0.0541008182   -2.3310733610    6.3097007996
C        1.5446932858   -2.8426310824    2.9861214424
N       -3.0847723580   -1.4542226483    0.0216057389
N       -2.0561375612   -3.9427242436    6.0898687602
O        1.4813260891   -2.2490165954    1.6780919837
F        0.1151283797   -1.0968181364    3.8145734634
H       -5.5376961973   -4.9903127855   -2.9978225764
H       -6.7968405851   -2.9251219076   -2.4130687858
H       -3.2058830889   -5.3191153604   -2.1464133792
H       -0.8681279967   -5.1526765579   -0.9989729332
H       -5.7353329365   -1.1733956759   -0.9828528068
H        1.1801649040   -4.4939920095    0.2932957793
H       -0.7063439574   -0.7952708293    1.4103867605
H       -1.7328076753   -4.0627166670    3.9920133607
H       -0.7317682178   -5.1640769132    4.9567284383
H        0.0618368981   -2.9651110218    8.4071310064
H        0.7999701326   -4.0777028843    7.2484133475
H       -1.4529126838   -0.7143980002    5.7522749569
H       -1.5277169159   -1.2159455565    7.4384325857
H       -1.1563763107   -5.2953851302    7.4760537609
H       -2.0193437472   -3.9281129476    8.1949927064
H       -3.3973097964   -2.4177457041    6.7694140762
H       -2.9457674570   -2.3256321729    5.0636743944
H        0.8013901867   -1.6551111186    6.4136045635
H        1.5404473736   -3.9330866166    2.8955955767
H        2.4889730766   -2.5577284909    3.4588586990
H       -3.3254901421   -0.5486968303    0.4070004961
46   

C       -5.2513639419   -4.2840945535   -1.5870722193
C       -5.8916476765   -3.0773363478   -1.2425481561
C       -3.9029931596   -4.4918860009   -1.2521511115
C       -0.8207133370   -4.3075822301   -0.1627845310
C       -5.1874133214   -2.0677664014   -0.5637656765
C        0.4047808952   -3.9418937185    0.4202005557
C       -0.5111045996   -1.7853933292    1.0544492122
C       -3.2298612322   -3.4738428371   -0.5768547661
C       -1.8706699995   -3.3932606373   -0.1016496895
C       -3.8496619310   -2.2817380776   -0.2385507932
C       -1.7246009230   -2.1560205064    0.4940356732
C        0.5647553775   -2.6876981970    1.0409384422
C        0.0453360488   -3.0035219940    4.7951685011
C        0.6983427582   -2.2921703824    3.8500364341
C       -0.9530312085   -4.1334364092    4.4228087182
C       -0.5918745280   -3.4285170537    7.1336095687
C       -1.7127211204   -1.6191355398    5.8399173492
C       -1.8071535871   -4.2886724088    6.7145619747
C       -2.6870626549   -2.6224098518    5.1702654173
C       -0.3473909291   -2.3086535350    6.0965186098
C        1.8570660085   -2.7497179995    3.0145357284
N       -2.9321347641   -1.4526505042    0.4217649289
N       -2.1341208964   -3.9916955492    5.3041760437
O        1.7542573779   -2.3484854566    1.6367589755
F        0.6175732471   -0.9402927798    3.9442103879
H       -5.8018195145   -5.0559646171   -2.1124104072
H       -6.9331563033   -2.9249405060   -1.5022173199
H       -3.3983234578   -5.4147163939   -1.5099732004
H       -0.9498549365   -5.2703998895   -0.6419006299
H       -5.6717475531   -1.1375253203   -0.2954770833
H        1.2436464820   -4.6258421886    0.3954190432
H       -0.3968413180   -0.8135363490    1.5153840452
H       -1.2512510244   -4.0381200986    3.3722834563
H       -0.4859665584   -5.1145456819    4.5571045391
H       -0.7658060966   -3.0149012628    8.1317595269
H        0.3036930904   -4.0554537457    7.1834842544
H       -1.6111610527   -0.7349811033    5.2036424083
H       -2.1229827678   -1.2861914829    6.7982677948
H       -1.5877332555   -5.3516412631    6.8574227429
H       -2.6719834537   -4.0385350931    7.3388560298
H       -3.6813236717   -2.5450498439    5.6219808711
H       -2.7887097763   -2.3806222490    4.1057038876
H        0.4167899687   -1.6065984714    6.4469069133
H        1.9438192362   -3.8386195795    3.0770450752
H        2.7744185518   -2.3239855831    3.4314936876
H       -3.1020852836   -0.5194321253    0.7776323284
46   

C       -5.3157424701   -4.1703046938   -1.1885127816
C       -5.9026795325   -2.9270874742   -0.8806716855
C       -3.9632332082   -4.4079790329   -0.8930611508
C       -0.8389253771   -4.2795580743    0.0711735555
C       -5.1408223742   -1.9112289126   -0.2775088409
C        0.4177084536   -3.9326242577    0.5955632229
C       -0.4018754823   -1.7190736358    1.1637627265
C       -3.2322686542   -3.3825954947   -0.2933897983
C       -1.8545202055   -3.3270783975    0.1276503850
C       -3.7995446900   -2.1555036774    0.0098612377
C       -1.6457845548   -2.0701330574    0.6602344398
C        0.6404703225   -2.6601484010    1.1563768293
C        0.0723572129   -2.9022612551    4.7863202172
C        0.8234201134   -2.1882043054    3.9294956839
C       -0.7448597660   -4.1296113697    4.3217175223
C       -0.8711424696   -3.3086062518    7.0228251790
C       -1.9188725426   -1.6485546225    5.4806504419
C       -1.9260107294   -4.2908460569    6.4636553998
C       -2.6983390551   -2.7620179791    4.7312766931
C       -0.5636889576   -2.2056091129    5.9849653365
C        1.9716149692   -2.6812360186    3.1053909848
N       -2.8312033383   -1.3290748729    0.5972483233
N       -2.0550739673   -4.0697923493    5.0082077368
O        1.8558134296   -2.3445184694    1.7108576691
F        0.8115320239   -0.8389600152    4.0811502753
H       -5.9104493251   -4.9472937667   -1.6547804180
H       -6.9476613133   -2.7516264271   -1.1100220555
H       -3.4990431178   -5.3590369162   -1.1229694878
H       -1.0178887552   -5.2576511086   -0.3584450015
H       -5.5842444499   -0.9531979041   -0.0378784260
H        1.2309678753   -4.6470051634    0.5755554909
H       -0.2384942645   -0.7346243095    1.5815351153
H       -0.8891419573   -4.0974422948    3.2361776132
H       -0.2184344329   -5.0566903734    4.5709050496
H       -1.2334288385   -2.8805948082    7.9625695242
H        0.0563580004   -3.8483364603    7.2376995226
H       -1.7775778647   -0.7939561268    4.8118330234
H       -2.4997223652   -1.3029744674    6.3413209992
H       -1.6380499467   -5.3235361928    6.6854823693
H       -2.8954943023   -4.1043645547    6.9384638941
H       -3.7494407930   -2.7608865386    5.0374977750
H       -2.6695065484   -2.5693173426    3.6521741694
H        0.0760670053   -1.4285465024    6.4167191403
H        2.0635873106   -3.7657192602    3.2170103643
H        2.8922857970   -2.2347062035    3.4923300368
H       -2.9556122034   -0.3732922694    0.9095092956
46   

C       -5.3342231084   -4.0747066284   -0.9887101952
C       -5.8839198331   -2.8141351488   -0.6827701282
C       -3.9795345966   -4.3391921176   -0.7280988061
C       -0.8280449901   -4.2706969584    0.1494781710
C       -5.0825658479   -1.8078868644   -0.1157123363
C        0.4475897251   -3.9494365126    0.6437030083
C       -0.3061401760   -1.7110566455    1.2063051066
C       -3.2087908884   -3.3225757527   -0.1643644610
C       -1.8193079596   -3.2937629282    0.2190735928
C       -3.7396015096   -2.0790271239    0.1378228681
C       -1.5681964134   -2.0362260336    0.7314609296
C        0.7117647796   -2.6787220683    1.1906791100
C        0.0908095355   -2.8309921465    4.7378695807
C        0.9350982890   -2.1521042421    3.9520650036
C       -0.5806171267   -4.1446485638    4.2934376684
C       -1.0093937824   -3.1496158189    6.9139700217
C       -2.0358714758   -1.7018727424    5.1524694575
C       -1.9129565477   -4.2682568857    6.3474771233
C       -2.6722713924   -2.9348428432    4.4562855867
C       -0.6984518787   -2.1035774533    5.8204430527
C        2.0568476512   -2.7030735235    3.1317737339
N       -2.7372396461   -1.2681077211    0.6886490344
N       -1.9419157817   -4.1566602778    4.8742157256
O        1.9415367040   -2.3932557998    1.7300895023
F        0.9916939890   -0.8064067160    4.1220423611
H       -5.9594117202   -4.8444184436   -1.4263486678
H       -6.9307659692   -2.6179716553   -0.8853879476
H       -3.5438780937   -5.3040654669   -0.9563965883
H       -1.0402437546   -5.2488874802   -0.2645561304
H       -5.4974656455   -0.8368009290    0.1224910693
H        1.2420244055   -4.6844537466    0.6159522963
H       -0.1109768693   -0.7276255925    1.6127452587
H       -0.6412662584   -4.1890152548    3.2014118511
H       -0.0031234006   -5.0068146520    4.6425189907
H       -1.4981966338   -2.6872499249    7.7770041509
H       -0.0641216663   -3.5808883615    7.2579371972
H       -1.8840956425   -0.9086234070    4.4136928261
H       -2.7145872291   -1.3180505433    5.9202607533
H       -1.5435573207   -5.2492625902    6.6635929494
H       -2.9315181807   -4.1541040262    6.7340508889
H       -3.7357895723   -3.0036140265    4.7070035842
H       -2.5979966412   -2.8238241666    3.3682940174
H       -0.1663645218   -1.2449756704    6.2433013225
H        2.1137498754   -3.7873039763    3.2661828193
H        2.9957830706   -2.2807252092    3.5016324293
H       -2.8308067549   -0.3053217340    0.9901952384
46   

C       -5.3437335410   -4.0083544489   -0.9207010411
C       -5.8819019264   -2.7466425088   -0.5994590287
C       -3.9888247097   -4.2845561617   -0.6736537682
C       -0.8311216931   -4.2475730053    0.1829973283
C       -5.0688444426   -1.7511412876   -0.0300494588
C        0.4483334894   -3.9430060608    0.6780433594
C       -0.2852885101   -1.7055094052    1.2702796409
C       -3.2061974686   -3.2782686890   -0.1075958216
C       -1.8140259222   -3.2634198474    0.2670387776
C       -3.7258510745   -2.0339845868    0.2104259850
C       -1.5506117114   -2.0135609961    0.7921865743
C        0.7237507852   -2.6821729552    1.2425343068
C        0.0198144401   -2.7816915830    4.7021298551
C        0.9684981790   -2.1428781310    4.0141347351
C       -0.5457466590   -4.1485617378    4.2871496063
C       -1.1907531986   -3.0197635184    6.8245694571
C       -2.1894375130   -1.7659580434    4.9031222934
C       -1.9612902090   -4.2466049590    6.2861926371
C       -2.7248619598   -3.0859047850    4.2873421947
C       -0.8780753194   -2.0321572356    5.6791761481
C        2.0605530756   -2.7410842757    3.1884881942
N       -2.7139292692   -1.2359935631    0.7627555512
N       -1.9285237140   -4.2231194727    4.8087963444
O        1.9547960022   -2.4164409505    1.7891821435
F        1.1073606353   -0.8107764240    4.2328382935
H       -5.9780705668   -4.7699167604   -1.3595119794
H       -6.9289712491   -2.5414104741   -0.7918316858
H       -3.5622241878   -5.2507394954   -0.9133396789
H       -1.0528994986   -5.2194184132   -0.2409232254
H       -5.4751090808   -0.7794269610    0.2202114974
H        1.2359701590   -4.6848894728    0.6405138197
H       -0.0813029941   -0.7297190819    1.6906557649
H       -0.5535041822   -4.2434130675    3.1973430955
H        0.0663594775   -4.9565350660    4.7008979355
H       -1.7772053963   -2.5362633466    7.6118690992
H       -0.2452357877   -3.3476605624    7.2677127959
H       -2.0251006924   -1.0361194864    4.1040998677
H       -2.9332967874   -1.3496227029    5.5892049744
H       -1.5195501331   -5.1698118868    6.6753415590
H       -3.0029120871   -4.2073416492    6.6227519667
H       -3.7866697423   -3.2088534812    4.5243092813
H       -2.6352246263   -3.0487142473    3.1960736576
H       -0.4330181815   -1.1117070575    6.0705093765
H        2.0698942746   -3.8275578566    3.3154736858
H        3.0191706408   -2.3648940078    3.5577221834
H       -2.7981917475   -0.2751678766    1.0732837542
46   

C       -5.3047289153   -3.9153078007   -0.9111398688
C       -5.8511955586   -2.6652924616   -0.5597133841
C       -3.9496681534   -4.1909461728   -0.6641332156
C       -0.7961506722   -4.1594129066    0.2076105718
C       -5.0464913747   -1.6812369756    0.0406586468
C        0.4796255884   -3.8612317943    0.7157802754
C       -0.2701663947   -1.6469579441    1.3718500153
C       -3.1752953565   -3.1959693931   -0.0673131243
C       -1.7850308848   -3.1836490137    0.3148447093
C       -3.7033749937   -1.9635811537    0.2813806486
C       -1.5312796942   -1.9476374964    0.8768212820
C        0.7450723962   -2.6154824997    1.3178788141
C       -0.0028377117   -2.7530021831    4.6956960894
C        1.0371959478   -2.1471676133    4.1228195099
C       -0.5016654952   -4.1467393051    4.2982092098
C       -1.2641167627   -2.9509559670    6.7878658799
C       -2.2597819280   -1.8279133594    4.7866360362
C       -1.9389313383   -4.2462150107    6.2809763437
C       -2.7336002708   -3.1972191281    4.2333865082
C       -0.9622982550   -2.0000385053    5.6094621914
C        2.0892857727   -2.7516442303    3.2521537754
N       -2.6988517750   -1.1757829076    0.8612631286
N       -1.8865182260   -4.2718810007    4.8038036471
O        1.9730853227   -2.3553966636    1.8730355048
F        1.2604114719   -0.8481415376    4.4437031679
H       -5.9327803235   -4.6681753649   -1.3734422944
H       -6.8982177006   -2.4602829219   -0.7527328413
H       -3.5168993294   -5.1483032483   -0.9271097816
H       -1.0104509458   -5.1201268104   -0.2446589883
H       -5.4593151826   -0.7185814421    0.3141471712
H        1.2719823766   -4.5968375604    0.6589481096
H       -0.0731477408   -0.6837439909    1.8234585143
H       -0.4906994024   -4.2614275679    3.2105986518
H        0.1385165287   -4.9198198971    4.7354866633
H       -1.9107295630   -2.4658761105    7.5255242213
H       -0.3217110339   -3.2010441862    7.2851099273
H       -2.0949840074   -1.1394075181    3.9521164395
H       -3.0378960318   -1.3988577855    5.4251934377
H       -1.4376546753   -5.1222906306    6.7054580532
H       -2.9847402937   -4.2709149414    6.6055535289
H       -3.7875685652   -3.3586683610    4.4820182101
H       -2.6501794381   -3.2052652674    3.1412709760
H       -0.5757616559   -1.0418579080    5.9704282852
H        2.0567380238   -3.8423510549    3.3279664302
H        3.0689680954   -2.4333966715    3.6206358738
H       -2.7897759608   -0.2233794641    1.1950061496
46   

C       -5.2925909087   -3.9059889250   -0.8973398088
C       -5.8467374094   -2.6598779461   -0.5441653649
C       -3.9376410961   -4.1763840585   -0.6437825628
C       -0.7880099260   -4.1320594778    0.2415386982
C       -5.0499461845   -1.6746524233    0.0647897274
C        0.4851450699   -3.8282463260    0.7529067912
C       -0.2795197938   -1.6227553144    1.4210515434
C       -3.1711220964   -3.1802482239   -0.0385929659
C       -1.7826424930   -3.1624513251    0.3503065168
C       -3.7069159424   -1.9518851587    0.3122152075
C       -1.5376121697   -1.9277623348    0.9194212118
C        0.7420952555   -2.5833159548    1.3611222477
C        0.0000738731   -2.7347263992    4.6686878108
C        1.1155808095   -2.1791700369    4.1964196801
C       -0.4690687953   -4.1504685371    4.3220834429
C       -1.2599366230   -2.8618903177    6.7622795461
C       -2.2833262267   -1.8590986141    4.7147534246
C       -1.8942423566   -4.1995966718    6.3151621506
C       -2.7251796432   -3.2628326054    4.2272138143
C       -0.9810952494   -1.9598585802    5.5405197084
C        2.1185481442   -2.7777118385    3.2653378499
N       -2.7092117800   -1.1617752941    0.9006676378
N       -1.8480579204   -4.2887695663    4.8398197124
O        1.9691756535   -2.3124815188    1.9122218812
F        1.4236700228   -0.9281801478    4.6200880604
H       -5.9146243279   -4.6597603157   -1.3663088662
H       -6.8935249904   -2.4587613897   -0.7426110971
H       -3.4991194906   -5.1306503396   -0.9084661072
H       -0.9955676529   -5.0916864024   -0.2161998300
H       -5.4687680968   -0.7149158898    0.3394485219
H        1.2823368235   -4.5582229150    0.6916596283
H       -0.0883118225   -0.6616765735    1.8795716963
H       -0.4615527087   -4.3010055366    3.2388219501
H        0.1906758974   -4.8939743162    4.7810775110
H       -1.9241628034   -2.3611667530    7.4733404331
H       -0.3133268342   -3.0601923312    7.2747656095
H       -2.1368279652   -1.2056272126    3.8497900508
H       -3.0707202555   -1.4196257594    5.3345996446
H       -1.3619415450   -5.0395186435    6.7736490445
H       -2.9368430275   -4.2448198515    6.6476760650
H       -3.7731041232   -3.4392559210    4.4907778691
H       -2.6483489146   -3.3176790694    3.1359623653
H       -0.6222206390   -0.9745773930    5.8534369488
H        2.0519631474   -3.8691243438    3.2933476957
H        3.1201525400   -2.5089946946    3.6138467903
H       -2.8064659391   -0.2105961701    1.2361035491
46   

C       -5.2814216809   -3.9126619930   -0.9099958082
C       -5.8489915152   -2.6704957106   -0.5643767068
C       -3.9275630229   -4.1728032560   -0.6401468335
C       -0.7884362603   -4.1035690784    0.2811499420
C       -5.0667634453   -1.6789463133    0.0531068889
C        0.4771735993   -3.7888062459    0.8045932358
C       -0.3119702554   -1.5896595522    1.4645004439
C       -3.1756046201   -3.1705667833   -0.0266660506
C       -1.7917620660   -3.1418234822    0.3783237763
C       -3.7246554637   -1.9459755332    0.3165181792
C       -1.5624672254   -1.9048218987    0.9490747294
C        0.7181801361   -2.5407637440    1.4140192962
C       -0.0201056039   -2.7347197210    4.6488055514
C        1.1621831207   -2.2359145174    4.2843712894
C       -0.4793174351   -4.1647185064    4.3503376634
C       -1.2732370301   -2.7914077783    6.7451855044
C       -2.3195162200   -1.8811890243    4.6698533064
C       -1.8931213977   -4.1532511892    6.3519950105
C       -2.7444562629   -3.3059815667    4.2330617019
C       -1.0101480133   -1.9348789272    5.4875217448
C        2.1244424563   -2.7991456767    3.2889300793
N       -2.7397430266   -1.1477955692    0.9154454592
N       -1.8539899040   -4.2983565057    4.8804463162
O        1.9383022771   -2.2531651526    1.9717179071
F        1.5434880730   -1.0537262941    4.8284663024
H       -5.8922823749   -4.6712564085   -1.3858514771
H       -6.8948314120   -2.4772883782   -0.7753861365
H       -3.4789554264   -5.1239403621   -0.8991030105
H       -0.9835567393   -5.0649774191   -0.1783380497
H       -5.4959953779   -0.7221501990    0.3219336638
H        1.2809187484   -4.5119932516    0.7494666263
H       -0.1325589229   -0.6274003943    1.9251386190
H       -0.4772628384   -4.3477804255    3.2719669874
H        0.1902219712   -4.8880977950    4.8270244057
H       -1.9409710919   -2.2714692863    7.4389397652
H       -0.3225362962   -2.9582749395    7.2614061443
H       -2.1910965886   -1.2535037519    3.7838598246
H       -3.1080239439   -1.4332230760    5.2822017183
H       -1.3477676629   -4.9685421804    6.8387617813
H       -2.9331897449   -4.1988715378    6.6922500577
H       -3.7900196626   -3.4855941683    4.5037435775
H       -2.6672625634   -3.3979978222    3.1442507601
H       -0.6622464984   -0.9327707637    5.7563937795
H        2.0367113106   -3.8890670591    3.2595331795
H        3.1420609585   -2.5684043738    3.6177628126
H       -2.8483223160   -0.1969285253    1.2482673852
46   

C       -5.2832785586   -3.9249146872   -0.9309596814
C       -5.8540698753   -2.6761478974   -0.6157895245
C       -3.9350450407   -4.1834467012   -0.6326380897
C       -0.8128431286   -4.1057472572    0.3454519704
C       -5.0805805971   -1.6761943142   -0.0009160640
C        0.4439751133   -3.7847742375    0.8862412041
C       -0.3512691686   -1.5732048806    1.4942032685
C       -3.1917263609   -3.1728677965   -0.0222351277
C       -1.8152931055   -3.1403200001    0.4074745649
C       -3.7439033954   -1.9415632558    0.2904522263
C       -1.5931334032   -1.8943509690    0.9610640770
C        0.6773962775   -2.5264503951    1.4787333474
C       -0.0617450285   -2.7871077836    4.6355553191
C        1.1737570683   -2.3454640732    4.3797326362
C       -0.5236630762   -4.2301454427    4.4004114869
C       -1.3192472097   -2.7526230000    6.7272605779
C       -2.3709640324   -1.9349763733    4.6204877144
C       -1.9457199735   -4.1276269525    6.3931140151
C       -2.7854254433   -3.3761042916    4.2323218447
C       -1.0577240700   -1.9520500536    5.4324539824
C        2.1123585937   -2.8465635925    3.3271155816
N       -2.7678607857   -1.1354477383    0.8931158846
N       -1.9007801454   -4.3396097479    4.9295282237
O        1.8881238136   -2.2249802324    2.0501546713
F        1.6033668890   -1.2439878708    5.0439792706
H       -5.8873780558   -4.6898246813   -1.4053458220
H       -6.8955823043   -2.4842883033   -0.8484065749
H       -3.4842187266   -5.1396245827   -0.8680648850
H       -1.0019793464   -5.0742408119   -0.1014810371
H       -5.5123499748   -0.7142782116    0.2446220787
H        1.2464958203   -4.5106402094    0.8552488190
H       -0.1776618617   -0.6039163977    1.9419562169
H       -0.5171505171   -4.4595166443    3.3307854368
H        0.1439892919   -4.9328088166    4.9096937369
H       -1.9824285351   -2.2017946908    7.4012356344
H       -0.3670610974   -2.9008530955    7.2465659158
H       -2.2562123877   -1.3329984918    3.7157329924
H       -3.1589163906   -1.4753873385    5.2249527501
H       -1.4081444164   -4.9231522779    6.9196306301
H       -2.9878493032   -4.1512202109    6.7292642839
H       -3.8347160411   -3.5485324739    4.4930475473
H       -2.6903131657   -3.5085212471    3.1490071530
H       -0.7101058519   -0.9382057494    5.6542268237
H        2.0251612667   -3.9334873739    3.2401973883
H        3.1380731972   -2.6308363899    3.6406879073
H       -2.8807581388   -0.1794082145    1.2092751639
46   

C       -5.3865409506   -3.6721854861   -0.7834910643
C       -5.8384556007   -2.3403467588   -0.7025769517
C       -4.0702858528   -3.9975255048   -0.4156206532
C       -0.9617654763   -4.0380512335    0.6064247164
C       -4.9771772512   -1.3237442080   -0.2541889233
C        0.3160326499   -3.7450797828    1.1120098189
C       -0.2676494215   -1.3967933122    1.3063956022
C       -3.2379407165   -2.9683997421    0.0257377951
C       -1.8669983731   -2.9879178847    0.4734392562
C       -3.6728610098   -1.6557269608    0.1075568866
C       -1.5301056480   -1.6897353092    0.8054423699
C        0.6662615514   -2.4285166228    1.4808601101
C       -0.0489452900   -2.8886531986    4.5496678335
C        1.1376024892   -2.3018783937    4.3357611866
C       -0.2429841769   -4.4105191697    4.6244662034
C       -1.4024738505   -2.6462835906    6.5659094265
C       -2.4742925722   -2.4933794986    4.3246165481
C       -1.7603478396   -4.1519419974    6.5279735615
C       -2.6085923452   -4.0328019182    4.2470094683
C       -1.2178442419   -2.1026361067    5.1316238747
C        2.1538400114   -2.7060121916    3.3109571513
N       -2.6282040717   -0.8500212922    0.5828595703
N       -1.6061832889   -4.6548130974    5.1443763744
O        1.8979373141   -2.1367130050    2.0148993204
F        1.3783402528   -1.1138850488    4.9439059157
H       -6.0577810243   -4.4491420955   -1.1311636322
H       -6.8558937459   -2.0968601004   -0.9876344201
H       -3.7105806104   -5.0174993603   -0.4721121344
H       -1.2396385871   -5.0484952458    0.3321841568
H       -5.3174476825   -0.2980830775   -0.1887067842
H        1.0437137564   -4.5383348697    1.2234043334
H       -0.0065163537   -0.3844949334    1.5838117410
H       -0.1382138210   -4.8516258261    3.6284310506
H        0.5091210863   -4.8592102455    5.2818693329
H       -2.1866994603   -2.0962681528    7.0950235904
H       -0.4681558614   -2.5055298601    7.1186941067
H       -2.4304608362   -2.0820727715    3.3141773535
H       -3.3579172259   -2.0698909453    4.8117552018
H       -1.1179890724   -4.7076019628    7.2191664481
H       -2.7973268874   -4.2940164679    6.8505752514
H       -3.6237794025   -4.3351194529    4.5242492849
H       -2.4350853642   -4.3642575805    3.2174171504
H       -1.0607844049   -1.0191962376    5.1295829051
H        2.1952249277   -3.7966589493    3.2415728893
H        3.1390634168   -2.3685726067    3.6461470329
H       -2.6556139012    0.1508675267    0.7384855025
46   

C       -5.3476638891   -3.5520746011   -0.8215616662
C       -5.7932131080   -2.2167244512   -0.7679622226
C       -4.0360708146   -3.8775651174   -0.4372658694
C       -0.9378941486   -3.9160599637    0.6183212756
C       -4.9303064568   -1.1968161630   -0.3303675634
C        0.3364249990   -3.6211031722    1.1321593320
C       -0.2351795683   -1.2660978092    1.2747257871
C       -3.2017307384   -2.8450037154   -0.0075252816
C       -1.8348201960   -2.8634383961    0.4531437344
C       -3.6306802751   -1.5289808761    0.0479505282
C       -1.4943848100   -1.5611972336    0.7662124757
C        0.6923400691   -2.2985044182    1.4784901193
C        0.0430136233   -2.9649977179    4.4651010520
C        1.2445504150   -2.3685617973    4.3412238226
C       -0.1409639314   -4.4843335509    4.6421720108
C       -1.3024267866   -2.5425504592    6.4674349031
C       -2.3984881502   -2.6767595336    4.2381537281
C       -1.5183024470   -4.0686941786    6.6144362101
C       -2.5459242604   -4.2055206072    4.4098662071
C       -1.1458795450   -2.1629195961    4.9783536414
C        2.2463602015   -2.6425647212    3.2573948767
N       -2.5863354833   -0.7203520376    0.5191143712
N       -1.4571536993   -4.7053758650    5.2791674475
O        1.9218828919   -1.9945911605    2.0140494726
F        1.4782364428   -1.2504143069    5.0723262290
H       -6.0203528883   -4.3315607207   -1.1606879764
H       -6.8070478554   -1.9730806047   -1.0655053935
H       -3.6815777810   -4.9002903920   -0.4723754528
H       -1.2195465971   -4.9300562431    0.3617531037
H       -5.2658941944   -0.1685090601   -0.2853662128
H        1.0554891196   -4.4186345376    1.2645256270
H        0.0285704892   -0.2499578273    1.5348172843
H       -0.1067104206   -4.9805986183    3.6670117366
H        0.6617098098   -4.8931490442    5.2648965497
H       -2.1502281575   -2.0076988945    6.9064799047
H       -0.4035667721   -2.2466919912    7.0174015914
H       -2.3284849853   -2.4390159759    3.1755423557
H       -3.2899528188   -2.1748297038    4.6262804977
H       -0.7503975797   -4.4910043004    7.2712258438
H       -2.4924399565   -4.2635825450    7.0753093826
H       -3.5213428680   -4.4392389368    4.8492148311
H       -2.4977468652   -4.6928346742    3.4300604611
H       -1.0211052754   -1.0831470350    4.8444492182
H        2.3406270881   -3.7219694953    3.1094119480
H        3.2236808205   -2.2783636831    3.5877061596
H       -2.6114170339    0.2827143746    0.6601242124
46   

C       -5.2804303108   -3.5831941511   -0.8956554807
C       -5.7597542387   -2.2660895615   -0.7542756600
C       -3.9571161936   -3.8974778436   -0.5433885073
C       -0.8510738573   -3.9220797622    0.4916942868
C       -4.9193493844   -1.2534452191   -0.2597161424
C        0.4168212978   -3.6287873446    1.0230080723
C       -0.2129113645   -1.3022657515    1.3131078587
C       -3.1453596911   -2.8722964454   -0.0563104901
C       -1.7747349873   -2.8840397398    0.3940077127
C       -3.6079666587   -1.5743872377    0.0865646685
C       -1.4665059924   -1.5964433465    0.7899914858
C        0.7415131188   -2.3213337525    1.4512999027
C        0.1448060369   -3.2150920757    4.3356657125
C        1.3819845824   -2.6619353565    4.3040454024
C       -0.1195148636   -4.7207473233    4.5593526722
C       -1.1537634662   -2.5850512725    6.3391039635
C       -2.2928793077   -2.9277103123    4.1572711610
C       -1.2058611858   -4.1039558346    6.6404793486
C       -2.5399421512   -4.3792919631    4.6237724903
C       -1.0182534152   -2.3543462393    4.8154461355
C        2.3548340569   -2.7773256081    3.1627306519
N       -2.5813226435   -0.7703005238    0.6023705865
N       -1.3522432400   -4.8502839354    5.3685475078
O        1.9635370575   -2.0157453036    2.0050921701
F        1.6646202235   -1.6846967984    5.2004453345
H       -5.9362616879   -4.3573602312   -1.2773472455
H       -6.7824520506   -2.0310896322   -1.0274875508
H       -3.5771166400   -4.9065107052   -0.6448651481
H       -1.1088851379   -4.9249232292    0.1736208315
H       -5.2812560356   -0.2394257643   -0.1464008175
H        1.1533863640   -4.4169055175    1.1049028554
H        0.0255954510   -0.2981012266    1.6362412642
H       -0.2404188475   -5.2270059154    3.5959720258
H        0.7277297270   -5.1765517003    5.0824246470
H       -2.0737729724   -2.1066982200    6.6892151136
H       -0.3201215412   -2.1343738400    6.8857671797
H       -2.1624873188   -2.9178908639    3.0744678964
H       -3.1679032230   -2.3125585496    4.3876874087
H       -0.2785314653   -4.4120467197    7.1356044010
H       -2.0334916913   -4.3237889871    7.3229258152
H       -3.4160722698   -4.4140359685    5.2800594579
H       -2.7435130379   -5.0208371079    3.7599745553
H       -0.8859421404   -1.2965255576    4.5639650438
H        2.4862689998   -3.8307298386    2.9005050812
H        3.3286349372   -2.4084017653    3.4982484328
H       -2.6317810945    0.2205579189    0.8078511710
46   

C       -5.2841110843   -3.5748872962   -1.0064029024
C       -5.7765568657   -2.2588921872   -0.9054158415
C       -3.9699964943   -3.8725439423   -0.6079886258
C       -0.8928496764   -3.8510360496    0.5137835117
C       -4.9591697337   -1.2310575186   -0.4038006745
C        0.3568701226   -3.5376400262    1.0767607889
C       -0.3043271790   -1.2144202413    1.3150100465
C       -3.1806373135   -2.8322312091   -0.1160811770
C       -1.8237987352   -2.8243469131    0.3746828276
C       -3.6573060325   -1.5358551429   -0.0103675355
C       -1.5392591629   -1.5287198107    0.7603892349
C        0.6575769802   -2.2196332934    1.4973825498
C        0.1957865204   -3.3377357618    4.3235469507
C        1.4546742719   -2.8055595559    4.3260844920
C       -0.1172228022   -4.8279850318    4.6154089422
C       -1.1121212330   -2.5796174559    6.2870193348
C       -2.2333979171   -2.9996642353    4.1149501894
C       -1.1815528136   -4.0812268391    6.6617489443
C       -2.5282025156   -4.4142573035    4.6616204537
C       -0.9488388945   -2.4274708880    4.7547075181
C        2.3655314123   -2.7264701691    3.1266233705
N       -2.6538359995   -0.7149626725    0.5240180622
N       -1.3535791128   -4.8837191835    5.4277491809
O        1.8586805997   -1.8773839801    2.0796855147
F        1.8234772250   -2.0506217422    5.3888734116
H       -5.9227478352   -4.3610227595   -1.3927504283
H       -6.7916991445   -2.0365347917   -1.2149800982
H       -3.5803194169   -4.8805400606   -0.6781068149
H       -1.1320968138   -4.8610449567    0.2039637595
H       -5.3313433257   -0.2178024215   -0.3209775439
H        1.0925455680   -4.3224821898    1.1873093914
H       -0.0855142373   -0.2023525529    1.6271744199
H       -0.2525166800   -5.3735616942    3.6757258285
H        0.7156141142   -5.2852166452    5.1600123293
H       -2.0357095661   -2.0789756699    6.5938440589
H       -0.2900063018   -2.1064529672    6.8315021340
H       -2.0903388369   -3.0558868198    3.0355056246
H       -3.0924761725   -2.3473603985    4.2986961730
H       -0.2512180768   -4.3789388846    7.1578704453
H       -2.0017831417   -4.2565280992    7.3656315731
H       -3.4004776356   -4.3818860247    5.3232411967
H       -2.7597304128   -5.0951303759    3.8359393355
H       -0.7856328991   -1.3866889107    4.4550825072
H        2.5600372224   -3.7332999075    2.7479541589
H        3.3286061142   -2.3209958167    3.4508025928
H       -2.7182126197    0.2789615488    0.7097948325
46   

C       -5.2700009060   -3.5849960463   -1.1313008123
C       -5.7799576240   -2.2733861729   -1.0666913530
C       -3.9664277624   -3.8613936119   -0.6858437584
C       -0.9257673181   -3.7854653236    0.5275255098
C       -4.9914080671   -1.2290317464   -0.5531447343
C        0.2998450046   -3.4512199448    1.1300415461
C       -0.3998138700   -1.1357428775    1.3255593558
C       -3.2053845778   -2.8047516264   -0.1842055122
C       -1.8656711122   -2.7736926955    0.3502456890
C       -3.7003436194   -1.5130587837   -0.1116646436
C       -1.6105565736   -1.4713467765    0.7316482907
C        0.5698075293   -2.1246041090    1.5535433039
C        0.2685136122   -3.4621642773    4.3326845992
C        1.5561510103   -2.9689588247    4.3254367370
C       -0.1162075126   -4.9284862906    4.6861904247
C       -0.9852926998   -2.5468001516    6.2425147529
C       -2.1486667450   -3.0248393365    4.1029230444
C       -1.1284274667   -4.0230644294    6.6954105131
C       -2.5048169281   -4.3940905559    4.7230407607
C       -0.8338380276   -2.4803188640    4.7032977399
C        2.3735513067   -2.6746544537    3.0857929940
N       -2.7254357669   -0.6737814190    0.4465641924
N       -1.3482324381   -4.8798173379    5.5057607326
O        1.7366617896   -1.7469165230    2.1874077821
F        2.1309110546   -2.6942848544    5.5199407986
H       -5.8869775372   -4.3842391910   -1.5258622122
H       -6.7865636039   -2.0673273537   -1.4131570830
H       -3.5637166763   -4.8658587411   -0.7272447776
H       -1.1416784828   -4.8014513411    0.2200336469
H       -5.3774230198   -0.2191175226   -0.4975393736
H        1.0312981447   -4.2344367751    1.2705765132
H       -0.2068518571   -0.1176198125    1.6350782155
H       -0.2844980138   -5.5060373148    3.7713261900
H        0.6956095595   -5.4022884239    5.2481794168
H       -1.8764376199   -1.9829033332    6.5350780671
H       -0.1290771608   -2.0919172882    6.7494413737
H       -2.0189844006   -3.1426315406    3.0269437143
H       -2.9744692603   -2.3241424562    4.2591105911
H       -0.2116943161   -4.3418581452    7.2037979601
H       -1.9524838755   -4.1204799399    7.4098605572
H       -3.3694676621   -4.2870510876    5.3868051313
H       -2.7747733113   -5.1043303411    3.9346382773
H       -0.6225224839   -1.4651503336    4.3510669524
H        2.6126891085   -3.6096186462    2.5733944388
H        3.3282374193   -2.2409506573    3.3979294741
H       -2.8076338343    0.3216144572    0.6166742830
