28   
Generated by ForceBalance from scan.xyz: Frame 1 of 9
C        2.7564013622   -1.5942103303    6.3005272773
C        3.7718996612   -0.7477357001    6.7510448362
C        2.7221393951   -1.9784632181    4.9606637394
C        4.7546546306   -0.2874804483    5.8701833744
C        3.6904711427   -1.5251774391    4.0468469809
C        4.7204610068   -0.6685105477    4.5235896100
C        2.7662605753   -2.3732448391    1.8227449694
C        1.2607788025   -2.7318764371    1.9801628394
C        1.4743046695   -1.8224363534    0.0402390636
C        3.7324093725   -1.9128039044    2.6346878581
C        7.8493777881   -0.4299983556    4.6210617485
C        6.7961309759    0.4787340333    3.9955161769
N        0.5410941454   -2.3512139941    0.7599653299
O        0.7235168246   -3.2127113084    2.9508653793
O        5.6212795219   -0.2380268309    3.5862327883
S        3.0085291250   -2.7998051635    0.0558704389
S        1.2746841347   -0.6235985442   -1.2034003362
H        2.0007460890   -1.9617966086    6.9886027422
H        3.8103953406   -0.4435709572    7.7939778881
H        1.9488906378   -2.6511110833    4.6112776468
H        5.5335695825    0.3666495345    6.2434134312
H        4.6931130071   -1.7428653467    2.1568076890
H        7.4908935077   -0.8976034315    5.5415688178
H        8.1291837676   -1.2225682807    3.9208462753
H        8.7460660820    0.1526369728    4.8590419748
H        7.1736892084    0.9163897018    3.0684332420
H        6.5218971402    1.3057791150    4.6599112674
H       -0.0149545420   -0.3524654371   -0.8993823499
28   
Generated by ForceBalance from scan.xyz: Frame 2 of 9
C        2.7621690581   -1.5761490060    6.3010628308
C        3.8169321529   -0.8002833943    6.7870570720
C        2.6936718316   -1.8771444603    4.9420372329
C        4.8065232107   -0.3272914130    5.9210302725
C        3.6694018493   -1.4094858370    4.0409201350
C        4.7410571101   -0.6233052108    4.5547144993
C        2.7294315494   -2.1360585794    1.7603938109
C        1.2684877789   -2.5604637775    1.9127510396
C        1.3682797924   -1.8073278526   -0.1540026199
C        3.6851192370   -1.7010605013    2.6087754786
C        7.8817393747   -0.4962670537    4.6278082102
C        6.8519489839    0.4818396726    4.0718036561
N        0.5409295185   -2.3264520718    0.6913065138
O        0.7457687333   -3.0143755042    2.9114119742
O        5.6495669166   -0.1713006804    3.6359698223
S        3.0610916519   -2.4005718463   -0.0049042854
S        0.9221822532   -0.9570523769   -1.6104991180
H        2.0003994357   -1.9534321776    6.9770205817
H        3.8807863963   -0.5615945735    7.8457121261
H        1.8895742353   -2.4944159473    4.5636128487
H        5.6158542776    0.2709897848    6.3217764379
H        4.6355339986   -1.4670052496    2.1377985769
H        7.5188915378   -1.0067528871    5.5234575815
H        8.1273908260   -1.2538094462    3.8778070293
H        8.7996651450    0.0421067779    4.8879542164
H        7.2329638906    0.9617732972    3.1673710949
H        6.6122074237    1.2760210739    4.7874606783
H       -0.4060298337   -1.0014239689   -1.3643890026
28   
Generated by ForceBalance from scan.xyz: Frame 3 of 9
C        2.7970763776   -1.5969591561    6.3398780749
C        3.8834585973   -0.8822425556    6.8495612208
C        2.6921953431   -1.8100074991    4.9671728017
C        4.8679050122   -0.3820863314    5.9930393504
C        3.6625599929   -1.3160052594    4.0721655338
C        4.7664547115   -0.5903322184    4.6132330881
C        2.6999001337   -1.9255672832    1.7505462450
C        1.2579043236   -2.3785230145    1.8938495621
C        1.3346324644   -1.8472744506   -0.2612469007
C        3.6497452204   -1.5168790124    2.6279837623
C        7.9097809984   -0.5550242854    4.6305654658
C        6.8993261848    0.4856096777    4.1594850835
N        0.5476161884   -2.2918897492    0.6600957285
O        0.7257208680   -2.7578054645    2.9236214106
O        5.6697369318   -0.1043204298    3.7080821374
S        3.0820029701   -2.0464170645   -0.0031926413
S        0.8005655832   -1.3534885015   -1.8538328058
H        2.0375186781   -1.9928853922    7.0076089226
H        3.9753564858   -0.7114674061    7.9192482184
H        1.8595875580   -2.3720948158    4.5665196021
H        5.7011730672    0.1688822463    6.4120332639
H        4.5913836820   -1.2342521067    2.1657859070
H        7.5491216153   -1.1111933818    5.4994880806
H        8.1186951090   -1.2696165823    3.8290701927
H        8.8479410155   -0.0605323348    4.9050858772
H        7.2765287152    1.0113329299    3.2793143935
H        6.6963983837    1.2388494959    4.9286317931
H       -0.5009018664   -1.6218213891   -1.6135077115
28   
Generated by ForceBalance from scan.xyz: Frame 4 of 9
C        2.7999172855   -1.6170463869    6.3428860969
C        3.9242994039   -0.9780687367    6.8708542397
C        2.6529128039   -1.7305220445    4.9628914106
C        4.9052406245   -0.4530664511    6.0254201620
C        3.6202060734   -1.2105400081    4.0772411932
C        4.7637095582   -0.5605466761    4.6379266989
C        2.6241422601   -1.7064441840    1.7311214750
C        1.2303259891   -2.2621302424    1.8692246438
C        1.3007385083   -1.9129009660   -0.3404878967
C        3.5649847760   -1.2981103295    2.6259026732
C        7.9080496900   -0.6314916690    4.5798694255
C        6.9239728999    0.4720020128    4.2064858703
N        0.5562324759   -2.3329631926    0.6266170386
O        0.6997243494   -2.6112749880    2.9141011036
O        5.6644511574   -0.0451932663    3.7474049469
S        3.0165264129   -1.6388821032   -0.0153640298
S        0.7469590323   -1.7513022167   -1.9968984272
H        2.0417219416   -2.0292120333    7.0022570910
H        4.0481927838   -0.8851578658    7.9469030348
H        1.7884967927   -2.2283573989    4.5456282339
H        5.7676158328    0.0380158217    6.4594465388
H        4.4778041999   -0.9275412022    2.1679732072
H        7.5491662302   -1.2331688126    5.4186545899
H        8.0724944326   -1.2964442528    3.7269946429
H        8.8692057551   -0.1882601154    4.8622021934
H        7.2984982392    1.0437226740    3.3543351817
H        6.7649728860    1.1773575198    5.0293898456
H       -0.4915231301   -2.2152191458   -1.7279523080
28   
Generated by ForceBalance from scan.xyz: Frame 5 of 9
C        2.7833027576   -1.6811255941    6.3562579234
C        3.9407583908   -1.1095616381    6.8899145602
C        2.5998446060   -1.7112424542    4.9764732410
C        4.9168225257   -0.5679931384    6.0492913682
C        3.5616329530   -1.1749202788    4.0939394952
C        4.7385344810   -0.5921592020    4.6621500830
C        2.5338785283   -1.5914875030    1.7416791912
C        1.1956825489   -2.2618566790    1.8734303733
C        1.3277387804   -2.1033771424   -0.3622772095
C        3.4629853642   -1.1654238112    2.6434038743
C        7.8899237109   -0.7057147600    4.5378497554
C        6.9090363976    0.4237411498    4.2418394977
N        0.5941206495   -2.5070662040    0.6198892093
O        0.6536766527   -2.5778748121    2.9242245030
O        5.6373734720   -0.0603308453    3.7802189904
S        2.8804347358   -1.3487736244    0.0036170571
S        0.8677176100   -2.2610263209   -2.0488502680
H        2.0264110095   -2.1029634953    7.0109906018
H        4.0939900580   -1.0816619449    7.9658455711
H        1.7065512577   -2.1509729939    4.5549700495
H        5.8056706972   -0.1309963164    6.4875547595
H        4.3384137393   -0.7092518584    2.1898320697
H        7.5408769477   -1.3485289805    5.3498430164
H        8.0326384826   -1.3255311228    3.6479291643
H        8.8599931064   -0.2858062540    4.8253199905
H        7.2729496213    1.0364989634    3.4139101718
H        6.7706829545    1.0858652243    5.1034289259
H       -0.3100509480   -2.8554840297   -1.7659425122
28   
Generated by ForceBalance from scan.xyz: Frame 6 of 9
C        2.7883194243   -1.7048278023    6.3830203835
C        3.9903197910   -1.2219280506    6.9052855116
C        2.5536383097   -1.6376391829    5.0120575473
C        4.9590680856   -0.6705628548    6.0623857049
C        3.5075325106   -1.0906788723    4.1283067261
C        4.7293460791   -0.5972845141    4.6844388595
C        2.4218669607   -1.4072121486    1.7906709111
C        1.1509445442   -2.2075768457    1.9155622977
C        1.3905164238   -2.1876625975   -0.3100554831
C        3.3468759292   -0.9676767270    2.6874073125
C        7.8821496456   -0.7846453461    4.4452146280
C        6.9150978714    0.3779492520    4.2480821141
N        0.6472507611   -2.6122102342    0.6559168865
O        0.5937284182   -2.5072872782    2.9619339577
O        5.6209203642   -0.0565379057    3.8005430385
S        2.6428262776   -0.9970831088    0.0612529892
S        1.1275301130   -2.5985881493   -1.9951790993
H        2.0353133806   -2.1306785850    7.0396292853
H        4.1840363721   -1.2705918449    7.9739240984
H        1.6231455435   -2.0035438690    4.6004005353
H        5.8835698273   -0.3046884006    6.4918578787
H        4.1706731024   -0.4205954042    2.2378400338
H        7.5453296282   -1.4688039593    5.2280712288
H        7.9847117208   -1.3523732927    3.5159314281
H        8.8688417607   -0.4004015230    4.7260284462
H        7.2656146671    1.0318264046    3.4461406337
H        6.8165882231    0.9901578487    5.1510977509
H        0.0265298867   -3.3367278807   -1.7415298415
28   
Generated by ForceBalance from scan.xyz: Frame 7 of 9
C        2.7740209295   -1.6955660882    6.3925235451
C        4.0141488218   -1.2947196861    6.8942540603
C        2.4936492386   -1.5387610581    5.0369463397
C        4.9752465346   -0.7356229550    6.0474727880
C        3.4391912590   -0.9833676929    4.1515231604
C        4.6987806198   -0.5736773566    4.6855035530
C        2.2898334997   -1.1972449546    1.8444298756
C        1.0535100566   -2.0706328814    1.9617797914
C        1.4496649554   -2.1684151600   -0.2213541729
C        3.2227886959   -0.7609250823    2.7269961975
C        7.8388763446   -0.8450988388    4.3222421854
C        6.8993590891    0.3519501616    4.2205681434
N        0.6464827824   -2.5894823890    0.6971113845
O        0.4619027121   -2.3398955331    2.9938356895
O        5.5796435316   -0.0234712542    3.7959463055
S        2.3711862665   -0.6877146191    0.1210157207
S        1.4607118745   -2.7684938874   -1.8662723018
H        2.0261308949   -2.1246040987    7.0529103315
H        4.2436656134   -1.4132800678    7.9502352994
H        1.5309126118   -1.8354954469    4.6435151996
H        5.9300960587   -0.4346914624    6.4607982474
H        4.0043683608   -0.1513022085    2.2826852498
H        7.5083740338   -1.5615166163    5.0784933171
H        7.8943263524   -1.3641235463    3.3610326575
H        8.8449346869   -0.5033615551    4.5890806878
H        7.2423410499    1.0383606928    3.4428210375
H        6.8485204249    0.9168417142    5.1578322850
H        0.4584217488   -3.6498957607   -1.6610948052
28   
Generated by ForceBalance from scan.xyz: Frame 8 of 9
C        2.7550295978   -1.7127029350    6.3629235110
C        4.0190072276   -1.3743561361    6.8508873384
C        2.4442452951   -1.4744674285    5.0253432555
C        4.9736191460   -0.7960192648    6.0096942704
C        3.3842686714   -0.9009418239    4.1479286410
C        4.6662038645   -0.5540908542    4.6659207019
C        2.1859791532   -1.0261540399    1.8752569441
C        0.9584989933   -1.9316331862    1.9831228174
C        1.5725050826   -2.1515764621   -0.1192004742
C        3.1310625253   -0.6001796838    2.7401726942
C        7.7795245191   -0.9044092721    4.1934650945
C        6.8801922611    0.3274405986    4.1821717058
N        0.6722232323   -2.5534677507    0.7152894664
O        0.3010539707   -2.1457692525    2.9823343660
O        5.5364956455    0.0204855635    3.7800185646
S        2.1451760028   -0.4670397190    0.1483284930
S        1.9393560430   -2.9091038153   -1.6472172284
H        2.0116307254   -2.1540579530    7.0202797113
H        4.2718556078   -1.5559529764    7.8924549655
H        1.4597457720   -1.7160169431    4.6469320849
H        5.9468137656   -0.5427689007    6.4122974820
H        3.8846827424    0.0473548326    2.3016610978
H        7.4461536879   -1.6476487722    4.9220609864
H        7.7883164086   -1.3741926786    3.2056993163
H        8.8044742580   -0.6113389896    4.4460396996
H        7.2250344960    1.0414304274    3.4304689404
H        6.8775595102    0.8440369816    5.1483993293
H        1.0939360467   -3.9474113681   -1.4632724192
28   
Generated by ForceBalance from scan.xyz: Frame 9 of 9
C        2.7250674585   -1.7352240255    6.3253367461
C        4.0115509279   -1.4620096811    6.7950746910
C        2.3899248527   -1.4254231983    5.0079189227
C        4.9628204215   -0.8771271338    5.9545218795
C        3.3271256254   -0.8457756191    4.1337149362
C        4.6300987899   -0.5642241017    4.6311164078
C        2.0680727337   -0.8835791456    1.9102190494
C        0.8359576130   -1.8276141810    2.0109270946
C        1.6652374303   -2.1133629134    0.0456167666
C        3.0392808599   -0.4776192743    2.7455552287
C        7.7235598232   -0.9714797475    4.0643100283
C        6.8535417696    0.2797129396    4.1292289387
N        0.6681391025   -2.5463953265    0.7430381800
O        0.1271931001   -2.0003704104    2.9753191777
O        5.4945588181    0.0215536861    3.7460124441
S        1.8838652727   -0.3117865586    0.1770454947
S        2.4612177319   -2.9449571763   -1.2578581741
H        1.9830390117   -2.1802131347    6.9817788090
H        4.2840386382   -1.6992084665    7.8203700142
H        1.3861157402   -1.6136502295    4.6485134510
H        5.9539800446   -0.6742330095    6.3417198543
H        3.7706114115    0.1940374740    2.3055828603
H        7.3886327671   -1.7393342967    4.7662396963
H        7.6992240366   -1.3958693561    3.0564371116
H        8.7606095223   -0.7138272286    4.3059906147
H        7.1986420683    1.0190083512    3.4024360693
H        6.8852173259    0.7517238690    5.1175598039
H        1.8541976469   -4.1317248973   -1.0291396883
