19   
Generated by ForceBalance from scan.xyz: Frame 1 of 24
C       -3.7582135300   -1.0624038498   -1.6058745450
C       -4.0206585297   -1.5792666523   -0.3662788036
C       -1.7243606620   -0.8520745241   -0.7573502800
C        0.6953901040    0.0971042864    1.1734415624
C       -0.0702588673    0.9198035496    0.1147970919
C       -0.2774833158   -0.4476649245   -0.6367291825
C        0.4482418226   -0.5539688737   -1.9837838971
N       -2.4573692339   -0.6565898673   -1.8182362279
N        0.3920865066   -1.0838921879    0.5181633555
O        1.3354282038    0.3366082832    2.1738925441
S       -2.5808435110   -1.5669039504    0.5999324417
H       -4.4837344114   -0.9624658682   -2.4060492834
H       -4.9544724797   -1.9703740016    0.0161585520
H       -0.9826619031    1.3948642002    0.4781789954
H        0.5484030006    1.6440922636   -0.4183778192
H        1.5265692963   -0.6444270409   -1.8294050853
H        0.2528995251    0.3436553227   -2.5762648969
H        0.0701568896   -1.3903169399   -2.5759895873
H        0.7921029740   -2.0128728203    0.6187434829
19   
Generated by ForceBalance from scan.xyz: Frame 2 of 24
C       -3.7622158332   -1.0824846352   -1.5976487002
C       -4.0127198217   -1.5959088350   -0.3542354389
C       -1.7254160791   -0.8479638665   -0.7609381212
C        0.6616452116    0.1536487857    1.1729503010
C       -0.1041729746    0.9544894245    0.0988301602
C       -0.2830057593   -0.4231923668   -0.6452009358
C        0.4560534383   -0.5447065987   -1.9910822957
N       -2.4667129546   -0.6639728602   -1.8180430836
N        0.3869368736   -1.0368354883    0.5231280730
O        1.2839445470    0.4119252201    2.1798876856
S       -2.5677125393   -1.5650911276    0.6038658514
H       -4.4927898523   -0.9934394341   -2.3945180085
H       -4.9402852125   -1.9953672641    0.0347407399
H       -1.0270433113    1.4210438617    0.4465760370
H        0.5116689514    1.6823832837   -0.4322311809
H        1.4799434473   -0.8929937600   -1.8341854904
H        0.4994565358    0.4278551041   -2.4877989329
H       -0.0708011944   -1.2109158667   -2.6759609018
H        0.8064982024   -1.9562255072    0.6325935849
19   
Generated by ForceBalance from scan.xyz: Frame 3 of 24
C       -3.7612672041   -1.0985890683   -1.5868850072
C       -3.9999218294   -1.6393188859   -0.3527378574
C       -1.7118880130   -0.9008602354   -0.7721807512
C        0.7132659835    0.0281845809    1.1617491796
C       -0.0627750504    0.8666783064    0.1272357359
C       -0.2659413092   -0.4871897526   -0.6593427731
C        0.4791175331   -0.5973559742   -2.0065526583
N       -2.4652927546   -0.6858315798   -1.8146227957
N        0.4057128567   -1.1402698693    0.4888381971
O        1.3612995403    0.2519414184    2.1610719507
S       -2.5425891680   -1.6430152085    0.5867340265
H       -4.5010814526   -0.9847279477   -2.3719541182
H       -4.9256625862   -2.0407601995    0.0385938258
H       -0.9775329608    1.3231763274    0.5088566985
H        0.5434141897    1.6111002737   -0.3908893495
H        1.3517199919   -1.2476677385   -1.9009338875
H        0.8311476693    0.3793355423   -2.3463225941
H       -0.1709279123   -1.0035811113   -2.7818782554
H        0.8257170220   -2.0633909619    0.5609536502
19   
Generated by ForceBalance from scan.xyz: Frame 4 of 24
C       -3.7718541572   -1.1217472297   -1.5958288393
C       -4.0069768648   -1.6791960295   -0.3683084673
C       -1.7263022654   -0.9117888623   -0.7740959380
C        0.7266632952    0.0188914813    1.1550656847
C       -0.0724335573    0.8613284063    0.1438832210
C       -0.2855265839   -0.4875715432   -0.6506783887
C        0.4790991072   -0.6073270765   -1.9826846165
N       -2.4799379768   -0.6932856993   -1.8160623000
N        0.3874940811   -1.1491526927    0.4956802282
O        1.4081855486    0.2392237182    2.1322162517
S       -2.5517841317   -1.6779800654    0.5739728649
H       -4.5113855660   -1.0066566192   -2.3809893763
H       -4.9295313358   -2.0936656755    0.0169548258
H       -0.9824153330    1.3046842531    0.5523547251
H        0.5111222322    1.6191888447   -0.3804545135
H        1.1261652332   -1.4895388974   -1.9544415351
H        1.1113877538    0.2635891175   -2.1679672804
H       -0.2115881849   -0.7425624446   -2.8160022449
H        0.8262222961   -2.0654713736    0.5439793772
19   
Generated by ForceBalance from scan.xyz: Frame 5 of 24
C       -3.7724261023   -1.1328848603   -1.5956068178
C       -4.0029521774   -1.7129898178   -0.3776836369
C       -1.7301218173   -0.9165700189   -0.7682243329
C        0.7327708021    0.0282082245    1.1543067549
C       -0.0746396168    0.8657631001    0.1460688808
C       -0.2927469236   -0.4856401371   -0.6402725940
C        0.4732193104   -0.6119678688   -1.9631796974
N       -2.4848236299   -0.6876986962   -1.8074089119
N        0.3860046807   -1.1435604877    0.5049921294
O        1.4244414479    0.2535230544    2.1232578513
S       -2.5488540998   -1.7124505652    0.5661360129
H       -4.5126043347   -1.0116820491   -2.3792312386
H       -4.9220949172   -2.1414004730    0.0003774725
H       -0.9814853151    1.3107911408    0.5596153722
H        0.5036786962    1.6213380494   -0.3876462671
H        0.8877046624   -1.6225743339   -2.0465265513
H        1.3008421634    0.0991941493   -2.0164903113
H       -0.2008267144   -0.4817579941   -2.8115474635
H        0.8309952451   -2.0570704718    0.5500957584
19   
Generated by ForceBalance from scan.xyz: Frame 6 of 24
C       -3.7625874213   -1.1554686795   -1.5900714729
C       -3.9876658678   -1.7364513934   -0.3715556932
C       -1.7237796839   -0.9153805136   -0.7608094571
C        0.7323466244    0.0807456367    1.1433187861
C       -0.0797068358    0.8936804413    0.1173356016
C       -0.2895121070   -0.4737734064   -0.6378155670
C        0.4671999273   -0.6084861170   -1.9591332078
N       -2.4797227076   -0.6962197953   -1.8012903029
N        0.3972848981   -1.1064482622    0.5149278139
O        1.4206690245    0.3294077082    2.1089623833
S       -2.5347079127   -1.7180760131    0.5739643558
H       -4.5035093325   -1.0432383500   -2.3743391930
H       -4.9026459797   -2.1734500569    0.0067119435
H       -0.9881221630    1.3465368514    0.5181722563
H        0.4994225468    1.6368881908   -0.4332997163
H        0.6775321582   -1.6649329895   -2.1587286861
H        1.4166263239   -0.0678309080   -1.9191157742
H       -0.1450024568   -0.2436987670   -2.7861871215
H        0.8491176682   -2.0154539181    0.5769914493
19   
Generated by ForceBalance from scan.xyz: Frame 7 of 24
C       -3.7561557405   -1.1672296700   -1.5879597022
C       -3.9848862227   -1.7510334953   -0.3714963195
C       -1.7195433098   -0.9298989926   -0.7527820431
C        0.7301989437    0.0752987067    1.1482764285
C       -0.0791614766    0.8803868165    0.1118771091
C       -0.2839057042   -0.4926379579   -0.6294438598
C        0.4611079571   -0.6166162284   -1.9566738472
N       -2.4724524030   -0.7078625571   -1.7947818068
N        0.4012439411   -1.1180217707    0.5259282078
O        1.4142404130    0.3313838721    2.1149030672
S       -2.5342602343   -1.7353664376    0.5779693049
H       -4.4950894332   -1.0527128673   -2.3737877483
H       -4.9011269189   -2.1882482959    0.0034260877
H       -0.9893885418    1.3375089066    0.5032182276
H        0.5050301719    1.6170755710   -0.4426378700
H        0.4828847601   -1.6587306382   -2.2906835538
H        1.4894081061   -0.2607144693   -1.8421089423
H       -0.0431652589   -0.0285502633   -2.7262680605
H        0.8557270784   -2.0250215282    0.5948891203
19   
Generated by ForceBalance from scan.xyz: Frame 8 of 24
C       -3.7308292764   -1.1744909098   -1.5828106300
C       -3.9771719863   -1.7349857212   -0.3588715269
C       -1.6913268725   -0.9747923849   -0.7465502219
C        0.7617215836   -0.0609270373    1.1734757208
C       -0.0239666274    0.7841061782    0.1483269108
C       -0.2460007239   -0.5663629293   -0.6276958030
C        0.4725057735   -0.6470069746   -1.9749630033
N       -2.4357038385   -0.7502838673   -1.7937597914
N        0.4385947566   -1.2288780814    0.5038379150
O        1.4260268093    0.1577219774    2.1627698151
S       -2.5286600652   -1.7417639547    0.5940737433
H       -4.4648193341   -1.0540550719   -2.3723673843
H       -4.9043178403   -2.1457312947    0.0191878734
H       -0.9286763133    1.2516167219    0.5396469363
H        0.5838606748    1.5196869472   -0.3821246385
H        0.2968866489   -1.6073327875   -2.4662570792
H        1.5482973568   -0.5167513367   -1.8185684505
H        0.1257158549    0.1515457357   -2.6341696933
H        0.8501643539   -2.1559552801    0.5704461013
19   
Generated by ForceBalance from scan.xyz: Frame 9 of 24
C       -3.7226439877   -1.1959307277   -1.5695125337
C       -3.9657006619   -1.7445764511   -0.3396539244
C       -1.6779780810   -0.9979090906   -0.7436617304
C        0.7629853112   -0.0867668666    1.1774323666
C       -0.0193211307    0.7589109394    0.1494604132
C       -0.2310917282   -0.5899168780   -0.6332461183
C        0.4766405720   -0.6587749503   -1.9927349260
N       -2.4265085732   -0.7789159308   -1.7889836726
N        0.4571923912   -1.2520051590    0.4957549744
O        1.4138904100    0.1303042005    2.1759318441
S       -2.5127008754   -1.7509547062    0.6067051242
H       -4.4595368353   -1.0792625665   -2.3569510771
H       -4.8925687086   -2.1492785163    0.0455195621
H       -0.9287262359    1.2214315874    0.5356878774
H        0.5904474097    1.4986389744   -0.3727435315
H        0.1231219880   -1.4965909483   -2.5963429201
H        1.5539932752   -0.7643014115   -1.8283257018
H        0.3259836367    0.2691288281   -2.5484660861
H        0.8621734702   -2.1814916740    0.5676531369
19   
Generated by ForceBalance from scan.xyz: Frame 10 of 24
C       -3.7237260542   -1.2166815941   -1.5639232234
C       -3.9564288829   -1.7604562644   -0.3299266457
C       -1.6781041151   -0.9920449521   -0.7471315229
C        0.7293597430   -0.0270714729    1.1796128616
C       -0.0538810561    0.7968917930    0.1359920913
C       -0.2364925245   -0.5625831132   -0.6398756636
C        0.4855638933   -0.6467762587   -1.9980501703
N       -2.4329034021   -0.7875207140   -1.7907797258
N        0.4517924733   -1.2020677097    0.5034961566
O        1.3631361443    0.2088211025    2.1848801055
S       -2.5000334998   -1.7449724819    0.6110358029
H       -4.4645535073   -1.1125829953   -2.3494246350
H       -4.8772812878   -2.1734881100    0.0608300392
H       -0.9742263031    1.2500452196    0.5073512269
H        0.5515063379    1.5411264740   -0.3843472454
H       -0.0259572325   -1.3172319499   -2.6892986176
H        1.5073868576   -1.0061786665   -1.8426953127
H        0.5634396285    0.3394805818   -2.4605780892
H        0.8746122836   -2.1228180523    0.5855964600
19   
Generated by ForceBalance from scan.xyz: Frame 11 of 24
C       -3.7216422768   -1.2404179501   -1.5553300345
C       -3.9431604734   -1.7872783362   -0.3206367318
C       -1.6719060342   -1.0040962704   -0.7517686850
C        0.7347967298   -0.0336168685    1.1777354581
C       -0.0524381545    0.7928422608    0.1413509133
C       -0.2332955176   -0.5630938537   -0.6468884919
C        0.5047430458   -0.6578237705   -1.9993691810
N       -2.4352159532   -0.8027202279   -1.7898342664
N        0.4586765792   -1.2040299351    0.4959280312
O        1.3685167526    0.1991971773    2.1838935237
S       -2.4808772395   -1.7635617714    0.6106211504
H       -4.4679924169   -1.1398565186   -2.3360269423
H       -4.8588742574   -2.2066393769    0.0754752349
H       -0.9738250652    1.2379940178    0.5203185135
H        0.5451236113    1.5452836674   -0.3754902194
H       -0.1409667308   -1.0778803297   -2.7711613258
H        1.3906474374   -1.2903212621   -1.8980894235
H        0.8357750681    0.3255067318   -2.3408661918
H        0.8773955641   -2.1268907466    0.5771003381
19   
Generated by ForceBalance from scan.xyz: Frame 12 of 24
C       -3.8332437429   -0.6993026217   -1.6394354636
C       -4.1438166076   -1.3879972238   -0.4985087745
C       -1.7805255720   -0.8760491421   -0.8255576181
C        0.7516123820   -0.5486160366    1.1892058299
C        0.0830936586    0.5220089218    0.3069380961
C       -0.2963794274   -0.6649942088   -0.6638151760
C        0.4527242164   -0.6970346485   -2.0098381913
N       -2.4951074811   -0.4160328560   -1.8149636068
N        0.2768628505   -1.5595765053    0.3729925781
O        1.4385607846   -0.5560089621    2.1870684481
S       -2.7050637265   -1.7094682718    0.4140094525
H       -4.5479392980   -0.3794193269   -2.3901298453
H       -5.1143054976   -1.7285559932   -0.1616645049
H       -0.7641098441    1.0257109177    0.7758016236
H        0.7715392987    1.2569402742   -0.1123205012
H       -0.2533542522   -0.6014687590   -2.8366361261
H        0.9955913905   -1.6384022402   -2.1261391883
H        1.1573449030    0.1338340281   -2.0933642351
H        0.5896131145   -2.5239504111    0.2928051543
19   
Generated by ForceBalance from scan.xyz: Frame 13 of 24
C       -3.8323293727   -0.7225652215   -1.6357485922
C       -4.1338140087   -1.4197072241   -0.4972771891
C       -1.7803479008   -0.8600081573   -0.8152295435
C        0.7711060562   -0.4523835111    1.1787459004
C        0.0744947017    0.5889674286    0.2840784329
C       -0.3013401496   -0.6241391832   -0.6531687963
C        0.4500248369   -0.6846462974   -1.9896132051
N       -2.4998618295   -0.4125410022   -1.8071201612
N        0.2869213675   -1.4895480787    0.4010925382
O        1.4820564088   -0.4271190771    2.1595034436
S       -2.6922046037   -1.7124433843    0.4199914915
H       -4.5508502266   -0.4152409214   -2.3880237579
H       -5.0987938433   -1.7787150776   -0.1637792708
H       -0.7747467146    1.0864707351    0.7560166270
H        0.7413154390    1.3283407192   -0.1617992545
H       -0.2037032200   -0.3491167045   -2.7976406814
H        0.7662649704   -1.7080283759   -2.2098416809
H        1.3214873532   -0.0247647798   -1.9788443420
H        0.6203195995   -2.4480709273    0.3335293197
19   
Generated by ForceBalance from scan.xyz: Frame 14 of 24
C       -3.8316592176   -0.7374333807   -1.6376363941
C       -4.1344480580   -1.4453780184   -0.5062282128
C       -1.7819404961   -0.8725268024   -0.8111781909
C        0.7698237704   -0.4576822557    1.1803316428
C        0.0735259479    0.5803670165    0.2799799993
C       -0.3036660889   -0.6369233322   -0.6469010281
C        0.4388129310   -0.6894781650   -1.9824458730
N       -2.4998542358   -0.4201754493   -1.8021064896
N        0.2885565615   -1.4995113703    0.4059477213
O        1.4799861360   -0.4277326631    2.1615854164
S       -2.6944555427   -1.7394884672    0.4132966775
H       -4.5489657427   -0.4266246935   -2.3896444630
H       -5.0992026220   -1.8102719130   -0.1785452776
H       -0.7727680530    1.0867263276    0.7472550910
H        0.7450268801    1.3115035507   -0.1732792944
H       -0.1186770441   -0.1321277497   -2.7387771804
H        0.5373922824   -1.7226076997   -2.3285620752
H        1.4311538571   -0.2398147454   -1.8861231017
H        0.6243205322   -2.4572697169    0.3404933631
19   
Generated by ForceBalance from scan.xyz: Frame 15 of 24
C       -3.8208638375   -0.7621762367   -1.6358948832
C       -4.1200205498   -1.4611450271   -0.4979527947
C       -1.7725189441   -0.8719813743   -0.8028739538
C        0.7746988876   -0.4045527526    1.1772532085
C        0.0689358137    0.6119604921    0.2576000351
C       -0.2955462329   -0.6254042338   -0.6440651632
C        0.4335275429   -0.6727682952   -1.9849333489
N       -2.4912457749   -0.4353984534   -1.8002451148
N        0.3074596900   -1.4649346223    0.4177651010
O        1.4824794963   -0.3520070058    2.1591407404
S       -2.6801360184   -1.7343101263    0.4284040882
H       -4.5391257651   -0.4648677702   -2.3924501171
H       -5.0825299322   -1.8303223395   -0.1685520504
H       -0.7815450462    1.1213703392    0.7134907514
H        0.7374520765    1.3375352067   -0.2093806013
H       -0.0018661533    0.0537919374   -2.6741505555
H        0.3406943287   -1.6641352340   -2.4393196362
H        1.4945874365   -0.4472519918   -1.8415942753
H        0.6518373287   -2.4204553334    0.3688778247
19   
Generated by ForceBalance from scan.xyz: Frame 16 of 24
C       -3.8004176183   -0.8014422866   -1.6393441488
C       -4.1056190983   -1.4532024772   -0.4753350977
C       -1.7537942647   -0.8889534989   -0.8006955279
C        0.7767880889   -0.4200591151    1.1809644379
C        0.0786875298    0.5966570584    0.2534711845
C       -0.2756222267   -0.6410291107   -0.6510860191
C        0.4365145089   -0.6609525560   -2.0040524769
N       -2.4690810799   -0.4878512714   -1.8151055480
N        0.3358987679   -1.4785226812    0.4041196424
O        1.4626980663   -0.3682498821    2.1782574871
S       -2.6678292399   -1.6985216794    0.4621241304
H       -4.5161406658   -0.5311530051   -2.4083208338
H       -5.0702466122   -1.8054522694   -0.1337891697
H       -0.7747326438    1.1108076753    0.6979460395
H        0.7571029744    1.3172845078   -0.2074114543
H        0.1555276921    0.2104886556   -2.5979329012
H        0.1587119300   -1.5537403074   -2.5726381347
H        1.5196809622   -0.6813970660   -1.8501645720
H        0.6617313617   -2.4408460102    0.3689990909
19   
Generated by ForceBalance from scan.xyz: Frame 17 of 24
C       -3.8041621541   -0.8703708347   -1.6381557390
C       -4.0929725618   -1.4706534117   -0.4428182770
C       -1.7572605380   -0.8573076401   -0.7950923425
C        0.7231007592   -0.2134773097    1.1836741681
C        0.0048859600    0.7350971753    0.1998073184
C       -0.2875636138   -0.5537230604   -0.6554815590
C        0.4267800651   -0.5982676932   -2.0128540186
N       -2.4815437485   -0.5292851373   -1.8288579216
N        0.3463181943   -1.3184131947    0.4394740265
O        1.3800465457   -0.0935187683    2.1944902297
S       -2.6506563985   -1.6277557070    0.5069424271
H       -4.5256188821   -0.6598504549   -2.4203539907
H       -5.0476542045   -1.8336276849   -0.0849563299
H       -0.8755063229    1.2340072512    0.6074211377
H        0.6647112949    1.4605493484   -0.2797332282
H        0.3161631064    0.3478885535   -2.5452361643
H        0.0035672562   -1.3824305304   -2.6460269094
H        1.4858078927   -0.8291832954   -1.8653359813
H        0.6895175516   -2.2748823021    0.4629796244
19   
Generated by ForceBalance from scan.xyz: Frame 18 of 24
C       -3.8044717015   -0.8827394052   -1.6216649697
C       -4.0802615821   -1.4949309094   -0.4293361647
C       -1.7489560311   -0.8739684393   -0.7981942299
C        0.7132954216   -0.2229577538    1.1878010819
C        0.0019753119    0.7241227164    0.1986712548
C       -0.2790005245   -0.5645351149   -0.6643389554
C        0.4419633545   -0.6157115844   -2.0250076268
N       -2.4843320351   -0.5373070214   -1.8212508117
N        0.3536546725   -1.3266169887    0.4347352729
O        1.3549818760   -0.1020809897    2.2083470628
S       -2.6285971208   -1.6579223256    0.5050012630
H       -4.5337336156   -0.6659692069   -2.3948837280
H       -5.0306078417   -1.8637988650   -0.0659843290
H       -0.8832762764    1.2217464001    0.5973846926
H        0.6659760756    1.4513258356   -0.2718469193
H        0.5790002369    0.3840285538   -2.4411019202
H       -0.1349892268   -1.1945965084   -2.7486986459
H        1.4165718186   -1.0984637645   -1.9119864106
H        0.7008399973   -2.2816535769    0.4598523206
19   
Generated by ForceBalance from scan.xyz: Frame 19 of 24
C       -3.8097729437   -0.9194177373   -1.6235013885
C       -4.0762008418   -1.5173568592   -0.4217997529
C       -1.7534865853   -0.8713987875   -0.8030294525
C        0.7069055035   -0.1782162989    1.1810309396
C       -0.0170151255    0.7564227174    0.1916925320
C       -0.2884750312   -0.5385536831   -0.6699487502
C        0.4512080714   -0.6122654991   -2.0229740313
N       -2.4946651632   -0.5597723843   -1.8298795507
N        0.3497823510   -1.2877375660    0.4379502984
O        1.3533429831   -0.0453366362    2.1972274400
S       -2.6216119156   -1.6474909028    0.5126983065
H       -4.5425103759   -0.7238539739   -2.3990644168
H       -5.0212351486   -1.8932923758   -0.0518354960
H       -0.9074533258    1.2408614639    0.5957712425
H        0.6312777227    1.4945391227   -0.2828131918
H        0.8635695767    0.3595161968   -2.3035741626
H       -0.2204158680   -0.9306338396   -2.8208808970
H        1.2815538311   -1.3203012718   -1.9574437838
H        0.7020790071   -2.2409144781    0.4692081805
19   
Generated by ForceBalance from scan.xyz: Frame 20 of 24
C       -3.8233354327   -0.9612415960   -1.6333060646
C       -4.0835235138   -1.5206138484   -0.4118084836
C       -1.7827318432   -0.8014121553   -0.7881359404
C        0.6634767356    0.0715194516    1.1732709716
C       -0.1036057815    0.9330673500    0.1529168651
C       -0.3341166586   -0.4088552420   -0.6483680972
C        0.4394909761   -0.5413662535   -1.9738075401
N       -2.5198624129   -0.5598742032   -1.8366692144
N        0.3136761650   -1.0865903344    0.5022368476
O        1.3327490812    0.2744696422    2.1624988553
S       -2.6391903871   -1.5570140715    0.5466050264
H       -4.5516229468   -0.8252071177   -2.4255917423
H       -5.0190610302   -1.9170333568   -0.0390946813
H       -1.0095120477    1.3950212970    0.5495001009
H        0.5039712306    1.6791879596   -0.3608950521
H        1.0831632360    0.3276837237   -2.1359614172
H       -0.2402328904   -0.6287136908   -2.8215723408
H        1.0991776454   -1.4129562168   -1.9381297388
H        0.7283337641   -2.0136719569    0.5562142881
19   
Generated by ForceBalance from scan.xyz: Frame 21 of 24
C       -3.8215192920   -0.9821863952   -1.6266249087
C       -4.0706731700   -1.5504074977   -0.4067916052
C       -1.7835399335   -0.7881147998   -0.7821049737
C        0.6724344533    0.1477679940    1.1531108890
C       -0.1149512835    0.9827968167    0.1267877876
C       -0.3414465167   -0.3753119820   -0.6451553525
C        0.4362184291   -0.5286839605   -1.9592619037
N       -2.5258929828   -0.5563430739   -1.8295367710
N        0.3179505605   -1.0272694392    0.5140143274
O        1.3561822029    0.3761942312    2.1269150888
S       -2.6252944160   -1.5625717847    0.5504110579
H       -4.5529636379   -0.8565115250   -2.4177330458
H       -4.9988696362   -1.9637170925   -0.0341069393
H       -1.0208509403    1.4420764249    0.5267132736
H        0.4765220099    1.7259354187   -0.4097674321
H        1.2605446946    0.1898605689   -1.9967206396
H       -0.2122254780   -0.3717200609   -2.8218833328
H        0.8887135383   -1.5236541925   -2.0136434501
H        0.7467117162   -1.9473766941    0.5775733641
19   
Generated by ForceBalance from scan.xyz: Frame 22 of 24
C       -3.8178650496   -0.9961122912   -1.6275157887
C       -4.0675130096   -1.5772717291   -0.4139120363
C       -1.7830892017   -0.8004470846   -0.7762715699
C        0.6713701673    0.1417765145    1.1573055322
C       -0.1142685763    0.9731787972    0.1255063485
C       -0.3416777300   -0.3877645805   -0.6361640797
C        0.4283869799   -0.5343552986   -1.9489979337
N       -2.5238610754   -0.5618150287   -1.8233655882
N        0.3200070905   -1.0370120588    0.5218130205
O        1.3539766726    0.3742520881    2.1309388078
S       -2.6242574513   -1.5917543458    0.5465348893
H       -4.5481156939   -0.8659181489   -2.4189946567
H       -4.9949413489   -1.9974477076   -0.0470685108
H       -1.0183337511    1.4413445202    0.5185385685
H        0.4842044693    1.7074187058   -0.4163311372
H        1.3790828138    0.0041614109   -1.8854163646
H       -0.1541967008   -0.1450534854   -2.7854319171
H        0.6608214577   -1.5879448111   -2.1349156841
H        0.7536273081   -1.9547073937    0.5859076478
19   
Generated by ForceBalance from scan.xyz: Frame 23 of 24
C       -3.8006958648   -1.0185117398   -1.6220031985
C       -4.0495043384   -1.5888817031   -0.4031063795
C       -1.7706064296   -0.7975837925   -0.7677775593
C        0.6689734929    0.1995808042    1.1505908529
C       -0.1202053126    1.0030045994    0.0973859197
C       -0.3314678578   -0.3750877962   -0.6327418602
C        0.4273816971   -0.5216654754   -1.9497587685
N       -2.5095969877   -0.5760932931   -1.8196602326
N        0.3333050492   -0.9963468648    0.5365380796
O        1.3454669613    0.4576619141    2.1219316173
S       -2.6086840104   -1.5817063858    0.5613253177
H       -4.5298669245   -0.9023016289   -2.4166369668
H       -4.9747847165   -2.0119806226   -0.0342070120
H       -1.0298839811    1.4730427676    0.4745022789
H        0.4774531815    1.7284552220   -0.4575279106
H        1.4546248097   -0.1636562689   -1.8310982876
H       -0.0690632607    0.0518215575   -2.7351396971
H        0.4538904643   -1.5697874518   -2.2641001514
H        0.7778757011   -1.9071361065    0.6189380454
19   
Generated by ForceBalance from scan.xyz: Frame 24 of 24
C       -3.7697037089   -1.0382830414   -1.6168277998
C       -4.0324678871   -1.5722251321   -0.3845057233
C       -1.7388252126   -0.8292837544   -0.7619520244
C        0.6950588921    0.1172657502    1.1676245472
C       -0.0744902248    0.9420269569    0.1142228184
C       -0.2931203533   -0.4248863576   -0.6338032570
C        0.4414432635   -0.5411535932   -1.9692862835
N       -2.4705704432   -0.6232935954   -1.8217779937
N        0.3735108064   -1.0644747364    0.5215847600
O        1.3493600160    0.3554898636    2.1590642161
S       -2.5944796085   -1.5652928446    0.5843105123
H       -4.4941788784   -0.9311971591   -2.4170119363
H       -4.9656301291   -1.9710357427   -0.0084633606
H       -0.9819507844    1.4215290694    0.4841867683
H        0.5422360882    1.6633152266   -0.4254462798
H        1.5158720467   -0.4005675312   -1.8214776804
H        0.0711218068    0.2209793568   -2.6591559178
H        0.2514967880   -1.5097303074   -2.4401759822
H        0.7819864698   -1.9908264280    0.6129507304
