19   

C        0.2864808700   -1.1772538858    0.6306168389
C        2.6642270189   -0.8724270231    0.4857964158
C        0.4355829347   -1.4400185172    2.0017050250
C        2.7431174131   -1.1412185576    1.8643551982
C        1.4104712069   -0.8736013174   -0.1498429341
C        1.1656998246   -0.5942062121   -1.6246463529
C        1.7601391130   -1.6620294965    4.0404259733
N        1.6447312676   -1.4185345736    2.5944350793
N        2.2551292836   -0.6108878080   -2.4426087570
O        0.0552043111   -0.4956726759   -2.1098584206
H       -0.7024048222   -1.1984712820    0.1738896697
H        3.5715717174   -0.6405208323   -0.0633613862
H       -0.4535921623   -1.6615301356    2.5865522296
H        3.7170759053   -1.1177066871    2.3465754458
H        1.8743618320   -2.7325616004    4.2401775950
H        2.6238745629   -1.1290290159    4.4507118117
H        0.8697859115   -1.2947821568    4.5611472597
H        2.0540304168   -0.5013881167   -3.4327211061
H        3.1824778117   -0.8518669683   -2.1233752156
19   

C        0.3036069957   -1.1998505692    0.6072979876
C        2.6726155878   -0.8292550321    0.4893270042
C        0.4512779367   -1.5064566825    1.9695172024
C        2.7510400740   -1.1420043258    1.8584596119
C        1.4219075580   -0.8248216757   -0.1501957205
C        1.1976617185   -0.5066853582   -1.6174457621
C        1.7667232807   -1.7453372362    4.0124535485
N        1.6554202244   -1.4692770140    2.5720061884
N        2.2370359440   -0.7602820158   -2.4587974403
O        0.0948891472   -0.3115452158   -2.0903706409
H       -0.6798501780   -1.2327447363    0.1397661411
H        3.5737547562   -0.5538284498   -0.0512977630
H       -0.4349772143   -1.7726420715    2.5399853799
H        3.7213112224   -1.1084768564    2.3474927668
H        1.9123733200   -2.8163027410    4.1873633666
H        2.6098629736   -1.1956548068    4.4432081899
H        0.8614273037   -1.4179682073    4.5341087154
H        2.0202575687   -0.6852785750   -3.4487661147
H        3.1086135120   -1.1643575864   -2.1452643926
19   

C        0.3257686691   -1.2238159584    0.5927635433
C        2.6823380547   -0.7846452479    0.4994604373
C        0.4747924083   -1.5677249587    1.9459475184
C        2.7637656335   -1.1353705506    1.8591038940
C        1.4341119301   -0.7802619666   -0.1424254813
C        1.2309157939   -0.4273175026   -1.6034517451
C        1.7836578059   -1.8157057335    3.9921322269
N        1.6737349841   -1.5109373999    2.5573786799
N        2.1631952416   -0.8982640296   -2.4724962612
O        0.1421798653   -0.1266780330   -2.0523046347
H       -0.6520120726   -1.2708861819    0.1148767704
H        3.5758737304   -0.4722979726   -0.0348954089
H       -0.4062366950   -1.8770550244    2.5025714743
H        3.7308233000   -1.0899718633    2.3535239341
H        1.9594310713   -2.8854284328    4.1450767427
H        2.6071476964   -1.2507369903    4.4408524184
H        0.8658374060   -1.5258428879    4.5141924249
H        1.9096303271   -0.8402376395   -3.4547336571
H        2.9702726467   -1.4273221116   -2.1706171641
19   

C        0.3586359055   -1.2687973475    0.5748070860
C        2.6981357513   -0.7508132698    0.5083077465
C        0.5096243007   -1.6390710110    1.9208186580
C        2.7832513802   -1.1294162606    1.8601663322
C        1.4538003414   -0.7611299479   -0.1387378690
C        1.2674855389   -0.3691497741   -1.5917339724
C        1.8094247176   -1.8753062478    3.9742118214
N        1.7012788914   -1.5534852154    2.5430481096
N        2.0351645654   -1.0228903143   -2.4987149654
O        0.2069207928    0.0621813307   -1.9985891415
H       -0.6126218860   -1.3344989590    0.0863339792
H        3.5830764300   -0.4007978255   -0.0177069008
H       -0.3643382399   -1.9897716125    2.4638716534
H        3.7455422693   -1.0636018295    2.3615372868
H        2.0213198965   -2.9401748265    4.1140778054
H        2.6082211485   -1.2877696614    4.4384237871
H        0.8775422077   -1.6247468108    4.4917877556
H        1.7303623425   -0.9466352085   -3.4648688165
H        2.7699757662   -1.6630462749   -2.2273644903
19   

C        0.4140868393   -1.3083822636    0.5436590505
C        2.7299901564   -0.6960370728    0.5377335340
C        0.5500530364   -1.6936699624    1.8871886523
C        2.8016278199   -1.0924929484    1.8850626440
C        1.5026591056   -0.7457761842   -0.1378624091
C        1.3479185484   -0.3091795893   -1.5821885613
C        1.8116083707   -1.9022704288    3.9675344458
N        1.7231831927   -1.5697240255    2.5374731004
N        1.9106401949   -1.1033772470   -2.5239326096
O        0.3562570015    0.2923235396   -1.9427071943
H       -0.5433316239   -1.3979611588    0.0328550087
H        3.6101609117   -0.3009597855    0.0357579151
H       -0.3212974149   -2.0849271524    2.4061708479
H        3.7493326791   -0.9944166029    2.4084626161
H        2.0748936285   -2.9562385195    4.1021859625
H        2.5665448406   -1.2791689126    4.4581183073
H        0.8552491997   -1.7059581845    4.4634401677
H        1.5729635430   -0.9681631567   -3.4724092900
H        2.5478617914   -1.8541377083   -2.2906178878
19   

C        0.8825351905   -0.0594729013    0.7027870194
C        2.6022940164   -1.7056154952    0.4730639580
C        0.8463364738   -0.3405378155    2.0806756419
C        2.5200854538   -1.9444491307    1.8540497247
C        1.7380838303   -0.7861865318   -0.1357525593
C        1.9094634904   -0.3965973490   -1.5921232880
C        1.6015731237   -1.5327344111    4.0776154982
N        1.6444546395   -1.2775960772    2.6297167885
N        1.0642500478   -0.9669575755   -2.4828358982
O        3.0030869558   -0.0978940787   -2.0272124677
H        0.2537823299    0.7252196085    0.2881683919
H        3.3412758348   -2.2216316844   -0.1372737652
H        0.1635798289    0.2236875850    2.7108415063
H        3.1909021625   -2.6768825053    2.2958778056
H        0.9236394813   -2.3637689643    4.2989645796
H        2.6009679551   -1.7782917665    4.4512701166
H        1.2587027064   -0.6422270655    4.6139214745
H        1.3447118799   -0.9138396612   -3.4576456545
H        0.2347391230   -1.4712820790   -2.1956933300
19   

C        0.8746126593   -0.1262219122    0.6757125567
C        2.6734811038   -1.6878958858    0.5132879967
C        0.8219399169   -0.3842832197    2.0579450514
C        2.5740998526   -1.9077532474    1.8958218701
C        1.7751244053   -0.8284857026   -0.1353722821
C        1.9775249397   -0.4608081465   -1.5933599693
C        1.5866599744   -1.5078041947    4.0912836491
N        1.6504339800   -1.2728280998    2.6407645945
N        0.9964967806   -0.8231676166   -2.4546216147
O        3.0931016737   -0.3905176560   -2.0692641718
H        0.2197133812    0.6227162694    0.2364986298
H        3.4501499632   -2.1785269400   -0.0713516664
H        0.1004421028    0.1579442402    2.6637894345
H        3.2704093945   -2.5993748964    2.3632734010
H        0.9356729158   -2.3604581868    4.3114295842
H        2.5863316731   -1.7109051043    4.4889186596
H        1.2000617312   -0.6229310139    4.6067086868
H        1.2533323544   -0.8275589555   -3.4374235933
H        0.1085584199   -1.1922578022   -2.1388079550
19   

C        0.8464008206   -0.1789808379    0.6543208252
C        2.7001901241   -1.6762842235    0.5325435498
C        0.7860005754   -0.4229515507    2.0390806081
C        2.5924038454   -1.8840107692    1.9160150437
C        1.7824719591   -0.8539114350   -0.1385412639
C        1.9917886041   -0.5166036486   -1.6026124916
C        1.5654838131   -1.4958309502    4.0946886070
N        1.6385846563   -1.2738355109    2.6425729734
N        0.9146193507   -0.6557219641   -2.4166198162
O        3.0854512588   -0.6035158667   -2.1250829866
H        0.1693915679    0.5412356096    0.2012817768
H        3.4980647576   -2.1516517368   -0.0363827261
H        0.0377156619    0.0991250264    2.6299385833
H        3.3060054016   -2.5468961646    2.3988387159
H        0.9658249576   -2.3853363435    4.3148551977
H        2.5693314336   -1.6305721032    4.5105125379
H        1.1148736138   -0.6317913988    4.5931171685
H        1.1192832407   -0.6751693042   -3.4115669128
H       -0.0010391688   -0.9024148476   -2.0638546066
19   

C        0.8337299207   -0.2572101957    0.6146948343
C        2.7353692688   -1.6953809005    0.5404960922
C        0.7678625133   -0.4761740980    2.0036014293
C        2.6211315125   -1.8793508581    1.9265940636
C        1.8039498565   -0.9090017770   -0.1557662292
C        2.0105067482   -0.6317080283   -1.6332822940
C        1.5606110046   -1.4829614485    4.0873995612
N        1.6421151031   -1.2855324053    2.6321904447
N        0.8853041779   -0.5576089552   -2.3938100279
O        3.0672451104   -0.8463747707   -2.1937996907
H        0.1341229569    0.4300014790    0.1459060689
H        3.5489562603   -2.1647587198   -0.0111727315
H       -0.0042369653    0.0303774262    2.5770878142
H        3.3489179745   -2.5122932074    2.4281068310
H        0.9775677469   -2.3807441231    4.3183778078
H        2.5632283697   -1.5897288657    4.5141668098
H        1.0881411136   -0.6195551926    4.5662977513
H        1.0389559512   -0.5804527930   -3.3979858361
H       -0.0401381154   -0.6785711746   -2.0043719760
19   

C        0.8162636401   -0.3239022777    0.6050655645
C        2.7679490570   -1.6940010388    0.5739546723
C        0.7417998352   -0.5266057509    1.9962211442
C        2.6439412587   -1.8629469340    1.9608822330
C        1.8253951989   -0.9403409831   -0.1446399812
C        2.0329836365   -0.7216045589   -1.6332575127
C        1.5442194851   -1.4751707937    4.1033760294
N        1.6375311616   -1.2934407898    2.6468424963
N        0.9233674615   -0.4361053863   -2.3689174360
O        3.0581153828   -1.0323353761   -2.2075713371
H        0.0907235603    0.3264671622    0.1247641087
H        3.5990786690   -2.1520302552    0.0389724909
H       -0.0571266891   -0.0439908388    2.5533714662
H        3.3852014158   -2.4664914788    2.4786524151
H        0.9743224341   -2.3801576984    4.3390209481
H        2.5439713973   -1.5601452934    4.5415934764
H        1.0526069906   -0.6141648152    4.5670977658
H        1.0609755973   -0.4388498872   -3.3757754886
H       -0.0054706999   -0.4200306237   -1.9708758470
19   

C        0.7842931523   -0.3873911720    0.5957805507
C        2.7817219402   -1.6885909830    0.5866053421
C        0.7158008305   -0.5724804838    1.9898861213
C        2.6628316773   -1.8411033874    1.9756697526
C        1.8227128695   -0.9666135046   -0.1441015965
C        2.0156619535   -0.8104768409   -1.6451238941
C        1.5476930850   -1.4616507626    4.1114241394
N        1.6382358767   -1.2951865678    2.6529027126
N        0.9601305889   -0.3259944160   -2.3572048916
O        3.0037389313   -1.2080742407   -2.2309622862
H        0.0254409315    0.2186943765    0.1107888978
H        3.6234802125   -2.1362343447    0.0594082774
H       -0.1036618376   -0.1156316928    2.5388614267
H        3.4215545925   -2.4150893429    2.5016999744
H        1.0058616069   -2.3810610404    4.3572803201
H        2.5487104030   -1.5101319044    4.5522910757
H        1.0285549441   -0.6107284477    4.5636015658
H        1.0922234411   -0.3059353539   -3.3646533957
H        0.0558472817   -0.1402553102   -1.9476827298
19   

C        0.7330929598   -0.5094652467    0.5954289073
C        2.8007385496   -1.6903488950    0.6002860591
C        0.6805316964   -0.6718869324    1.9930597783
C        2.6976188721   -1.8228978880    1.9925623819
C        1.8080301234   -1.0241175393   -0.1405108236
C        1.9867015621   -0.9252420445   -1.6510636572
C        1.5733470360   -1.4669273433    4.1272460141
N        1.6481770941   -1.3221770339    2.6655373718
N        1.0220090917   -0.2819136544   -2.3565450078
O        2.9433753160   -1.3951668925   -2.2357559786
H       -0.0756164021    0.0201023083    0.1023164613
H        3.6607975906   -2.1089805921    0.0787804952
H       -0.1670535979   -0.2617581590    2.5361709253
H        3.4885381660   -2.3459579264    2.5242501710
H        1.1023467873   -2.4193796951    4.3924201466
H        2.5761492463   -1.4315004921    4.5653344927
H        0.9926054133   -0.6489294224    4.5650121547
H        1.1768616575   -0.2353489665   -3.3598289688
H        0.2078797637    0.1402033905   -1.9343140500
19   

C        0.6829829777   -0.5837034880    0.5767173092
C        2.8106420877   -1.6589616453    0.5874279717
C        0.6434888465   -0.7327947249    1.9762495849
C        2.7184030546   -1.7794482759    1.9816453711
C        1.7898761614   -1.0371292503   -0.1516997739
C        1.9236473073   -0.9700900334   -1.6656918770
C        1.5842091314   -1.4538557339    4.1161333067
N        1.6478536595   -1.3212909448    2.6527472032
N        1.0517816957   -0.1596717989   -2.3282856543
O        2.8319917607   -1.5007617132   -2.2746990824
H       -0.1633439386   -0.1240233017    0.0759167434
H        3.6827550530   -2.0485303724    0.0634701247
H       -0.2262737900   -0.3686003669    2.5170627372
H        3.5339587951   -2.2598587807    2.5163522092
H        1.1620938997   -2.4257125274    4.3929523311
H        2.5851364052   -1.3636102129    4.5506360449
H        0.9644963133   -0.6611468368    4.5469576346
H        1.2147654054   -0.0765068746   -3.3279478045
H        0.3858993110    0.4370280105   -1.8587497715
19   

C        0.6472606038   -0.6382504817    0.5718442822
C        2.8105341309   -1.6421031749    0.5795112116
C        0.6208802703   -0.7731777856    1.9729347988
C        2.7308355464   -1.7497446960    1.9757514829
C        1.7707157047   -1.0494969952   -0.1556935997
C        1.8566075560   -1.0280604318   -1.6719123050
C        1.5988198836   -1.4401615541    4.1138659444
N        1.6503494433   -1.3177305340    2.6491329278
N        1.1315717341   -0.0691699481   -2.3111899880
O        2.7066717755   -1.6367324841   -2.2917558973
H       -0.2200113364   -0.2272281359    0.0629842504
H        3.6856670555   -2.0181399505    0.0508248833
H       -0.2602379776   -0.4385003755    2.5144448838
H        3.5628909413   -2.2013751418    2.5101211667
H        1.2321729774   -2.4314108266    4.4008198766
H        2.5944943922   -1.2900286246    4.5438531749
H        0.9367345539   -0.6797861319    4.5398724893
H        1.3165985911    0.0195246122   -3.3064820206
H        0.6013994132    0.6344443746   -1.8159494484
19   

C        0.6014738179   -0.6848093845    0.5733265652
C        2.7972285359   -1.6167287720    0.5622111589
C        0.5922902035   -0.8159286302    1.9747663815
C        2.7342904431   -1.7221356957    1.9597104388
C        1.7363018109   -1.0493131697   -0.1613831732
C        1.7729551764   -1.0606300802   -1.6783900612
C        1.6131038506   -1.4429303991    4.1078689053
N        1.6470691741   -1.3217157015    2.6425265054
N        1.2317293030    0.0176403587   -2.3048139555
O        2.5525338274   -1.7522058923   -2.3036857284
H       -0.2831431620   -0.3119302622    0.0635817422
H        3.6734339758   -1.9749203684    0.0231940108
H       -0.2961702370   -0.5128887155    2.5228674721
H        3.5838569092   -2.1484687477    2.4872504526
H        1.3015930987   -2.4514603213    4.3997261324
H        2.6025289547   -1.2386680421    4.5299130224
H        0.9143358724   -0.7181273612    4.5372663829
H        1.4444835750    0.0951876382   -3.2953716557
H        0.8216891740    0.7899046917   -1.7966607416
19   

C        0.5489804597   -0.7298392462    0.5887153710
C        2.7750725600   -1.5876902578    0.5499837048
C        0.5622715169   -0.8571680727    1.9902613993
C        2.7340214977   -1.6908593239    1.9486757911
C        1.6894155486   -1.0497851109   -0.1579476132
C        1.6767117763   -1.0897704077   -1.6743369146
C        1.6318978011   -1.4443418840    4.1108104598
N        1.6431939593   -1.3237835422    2.6450727669
N        1.3504569205    0.0655163354   -2.3068449263
O        2.3607366753   -1.8786362971   -2.2959806044
H       -0.3531553759   -0.3919211874    0.0844980500
H        3.6504902195   -1.9261711642   -0.0025836545
H       -0.3298539945   -0.5852856920    2.5486447506
H        3.6026791748   -2.0903601165    2.4659986864
H        1.3809056487   -2.4683991814    4.4069088042
H        2.6125344855   -1.1833588062    4.5219576299
H        0.8973129070   -0.7601799085    4.5470321747
H        1.5854725273    0.1036154917   -3.2945189204
H        1.0607924309    0.8940798820   -1.8035552062
19   

C        0.5131956429   -0.7853518027    0.5900599198
C        2.7744529971   -1.5493824461    0.5301358007
C        0.5440581903   -0.9131414191    1.9910018479
C        2.7493502912   -1.6551131433    1.9293173497
C        1.6620386824   -1.0535442097   -0.1651374088
C        1.6181017617   -1.1039379735   -1.6807218320
C        1.6553117661   -1.4574136517    4.1011164928
N        1.6498417353   -1.3340299780    2.6355789876
N        1.5313937130    0.0847768965   -2.3243078096
O        2.1767571877   -1.9926962170   -2.2922525804
H       -0.4056038226   -0.4858133955    0.0912833155
H        3.6548419397   -1.8559167189   -0.0326170756
H       -0.3543036028   -0.6804582409    2.5570486362
H        3.6372536599   -2.0204840075    2.4390857105
H        1.4415472581   -2.4898779298    4.3972497205
H        2.6299869357   -1.1641833765    4.5045660313
H        0.9017647531   -0.7991487336    4.5448297936
H        1.7780530329    0.0706962235   -3.3096230107
H        1.3615320219    0.9540250604   -1.8344583160
19   

C        0.4518254305   -0.8326955226    0.6055454010
C        2.7532585780   -1.4757320241    0.5072534584
C        0.5119997913   -0.9614089031    2.0050732042
C        2.7540410621   -1.5853543147    1.9068357713
C        1.6020626343   -1.0457351341   -0.1658178352
C        1.5232931668   -1.0813211708   -1.6804713514
C        1.6819202222   -1.4542227884    4.0953251719
N        1.6487700691   -1.3258472005    2.6305600913
N        1.6867989800    0.0963651955   -2.3278136760
O        1.8722011781   -2.0687454030   -2.2951428188
H       -0.4875365765   -0.5778729177    0.1201252933
H        3.6389291260   -1.7334930103   -0.0706968249
H       -0.3882159615   -0.7765955806    2.5856460788
H        3.6671901078   -1.9039273454    2.4031829248
H        1.5116009022   -2.4950929473    4.3902818406
H        2.6510053909   -1.1262762951    4.4851659422
H        0.9111858399   -0.8262595597    4.5532688935
H        1.8966443408    0.0322907592   -3.3195778003
H        1.6656542442    0.9864787143   -1.8460132748
19   

C        0.3931385634   -0.8818916160    0.6274668863
C        2.7758603028   -1.0935563831    0.5030040757
C        0.4943638318   -0.9027368064    2.0280359317
C        2.8121463363   -1.1147933327    1.9086084699
C        1.5418869119   -1.0388317979   -0.1599579249
C        1.4265773757   -1.0511547745   -1.6722924499
C        1.7512399257   -1.1204099038    4.1104976317
N        1.6847340294   -1.0405856960    2.6433558935
N        1.8338877066    0.0633290987   -2.3254812437
O        0.5359157558   -1.6703503824   -2.2186402123
H       -0.5767373694   -0.7933561989    0.1405503059
H        3.6967473929   -1.1753773863   -0.0697352274
H       -0.4166615349   -0.8254337668    2.6160173848
H        3.7743972882   -1.2137335726    2.4045651937
H        1.6244067661   -2.1579938433    4.4386242296
H        2.7160113440   -0.7516706671    4.4725483750
H        0.9668027269   -0.5065730583    4.5641876075
H        1.5008850283    0.1601181063   -3.2802887491
H        2.3478934303    0.8042759886   -1.8662059485
19   

C        0.3518106705   -0.9386928560    0.6377288666
C        2.7421204437   -1.0355339400    0.4936107275
C        0.4650883845   -0.9688755444    2.0370708065
C        2.7895614766   -1.0698190398    1.8987889337
C        1.5007851523   -1.0331784360   -0.1593680248
C        1.3553691648   -1.0125911170   -1.6685540578
C        1.7466130439   -1.1414441788    4.1083659216
N        1.6653863821   -1.0560403017    2.6422701104
N        1.9901232788   -0.0074403715   -2.3222986621
O        0.3723211080   -1.4719002515   -2.2153495537
H       -0.6258258027   -0.8846565093    0.1607052109
H        3.6623347219   -1.0669119463   -0.0847996354
H       -0.4440079281   -0.9379558315    2.6322926204
H        3.7588876354   -1.1269469689    2.3874933492
H        1.6558078654   -2.1841462795    4.4320575242
H        2.7021031835   -0.7439794342    4.4646101917
H        0.9470015786   -0.5548406549    4.5715736645
H        1.6842307548    0.1536898026   -3.2776283010
H        2.6114577219    0.6381169346   -1.8526410241
19   

C        0.3184063248   -0.9777770014    0.6439296675
C        2.7117562709   -0.9913894838    0.4887235845
C        0.4395350796   -1.0373209761    2.0416232258
C        2.7656296184   -1.0569467753    1.8926412425
C        1.4666209824   -1.0034574849   -0.1592368842
C        1.2932275498   -0.9452966304   -1.6647278276
C        1.7353433073   -1.2002908418    4.1046005154
N        1.6448189212   -1.0949847568    2.6403305848
N        2.1196299037   -0.0970819657   -2.3325405549
O        0.2583161349   -1.2726202056   -2.2115097586
H       -0.6642876149   -0.9440827255    0.1750943070
H        3.6320502476   -0.9835048918   -0.0896469302
H       -0.4673704386   -1.0506828592    2.6408473154
H        3.7380702298   -1.0936443246    2.3771032722
H        1.6743655520   -2.2495703322    4.4134197289
H        2.6813001827   -0.7819651822    4.4625055167
H        0.9226911668   -0.6418214198    4.5798469030
H        1.8584724147    0.0946818890   -3.2956032174
H        2.8332840117    0.4463522263   -1.8658580023
19   

C        0.2906643052   -1.0117295798    0.6577485480
C        2.6843041708   -0.9510512340    0.4910618703
C        0.4216114667   -1.1075211180    2.0524485156
C        2.7464775227   -1.0539224847    1.8925124798
C        1.4345688903   -0.9654566919   -0.1504500218
C        1.2291305677   -0.8766067200   -1.6517648908
C        1.7324163138   -1.2737604849    4.1055014413
N        1.6311556901   -1.1421745733    2.6440564966
N        2.1941727446   -0.2254026256   -2.3577727673
O        0.1608048646   -1.1000116131   -2.1870975048
H       -0.6968596265   -0.9959596357    0.1979721165
H        3.6040588623   -0.9056054982   -0.0852751969
H       -0.4812032550   -1.1658197985    2.6551650063
H        3.7217356716   -1.0764031673    2.3721513713
H        1.7142962476   -2.3304563102    4.3935270048
H        2.6623207564   -0.8246506664    4.4682549920
H        0.9005556399   -0.7572552900    4.5948733645
H        1.9684749254   -0.0428529347   -3.3316312189
H        2.9952996387    0.2066617770   -1.9187421555
19   

C        0.2747098674   -1.0570422231    0.6535228051
C        2.6669189191   -0.9167522667    0.4950036938
C        0.4067973135   -1.1965546587    2.0443110211
C        2.7289789773   -1.0640538573    1.8926278923
C        1.4172333481   -0.9317593144   -0.1484124152
C        1.1919696050   -0.8068594927   -1.6473013411
C        1.7174341938   -1.3722283684    4.0963001425
N        1.6155388147   -1.2087381257    2.6381111869
N        2.2464915644   -0.3744029988   -2.3936322456
O        0.1031885690   -0.9400844914   -2.1718523846
H       -0.7135125272   -1.0593955157    0.1948778020
H        3.5885587011   -0.8230881683   -0.0710615129
H       -0.4945822573   -1.3049006235    2.6422500970
H        3.7032946647   -1.0712301514    2.3746266945
H        1.7189749526   -2.4351777829    4.3605308657
H        2.6380662625   -0.9136606484    4.4707861451
H        0.8756537466   -0.8819029030    4.5956841376
H        2.0458120257   -0.2224125752   -3.3782026261
H        3.1275607355   -0.0877746973   -1.9917315133
19   

C        0.2849806638   -1.1327645467    0.6470202411
C        2.6719468887   -0.8984458513    0.4864711769
C        0.4308072157   -1.3433893257    2.0273236086
C        2.7462132058   -1.1159781762    1.8745189966
C        1.4177264141   -0.9065802578   -0.1474163771
C        1.1587426288   -0.6842814193   -1.6329146483
C        1.7552790134   -1.5450275688    4.0676307388
N        1.6422355573   -1.3366521640    2.6159597765
N        2.2353888489   -0.4622999018   -2.4305900043
O        0.0465954977   -0.6954297522   -2.1246828560
H       -0.7065382609   -1.1446621004    0.1956676981
H        3.5852403756   -0.7248511483   -0.0735321174
H       -0.4625474352   -1.5160262174    2.6222034319
H        3.7218606103   -1.1054712482    2.3537298852
H        1.8059855685   -2.6146909651    4.2968031073
H        2.6540467307   -1.0559424337    4.4565540675
H        0.8933610495   -1.1098263306    4.5837401051
H        2.0245662996   -0.3217723546   -3.4147128365
H        3.1877712853   -0.4600401516   -2.0954084838
