29   

C        1.8051221412    4.7066096152   -3.2802509340
C        1.9096616102    5.2524712966   -1.9990987632
C        1.1981868619    3.4612494946   -3.4547636228
C        1.4218091310    4.5473492974   -0.8928424842
C        0.7108758885    2.7569248882   -2.3481322234
C        0.8485549361    3.2749993255   -1.0405837177
C        0.2759675730    2.6257793909    0.1917838203
C       -0.6919813236   -1.5255706641   -0.0005334099
C        0.2354429031   -0.8698681089   -1.0321673612
C       -1.6710174744   -0.4827446560    0.5525888149
C        0.9697187888    0.3191611202   -0.4044037370
C       -0.9171520754    0.7123828772    1.1428516547
N       -0.0019222566    1.2700659541    0.1449486554
O       -0.0859388072    3.3083949093    1.1443469468
H        2.1786889808    5.2556648322   -4.1374144289
H        2.3610587665    6.2284112393   -1.8600493508
H        1.0895820910    3.0474577553   -4.4510164252
H        1.4934006147    4.9961229752    0.0931339436
H        0.1973777690    1.8186585190   -2.5206463385
H       -0.0945175598   -1.9376890939    0.8198952398
H       -1.2453344893   -2.3491883315   -0.4629189342
H       -0.3564528037   -0.5247061861   -1.8860009761
H        0.9616499578   -1.6025996978   -1.3974796528
H       -2.3062272822   -0.9339891803    1.3212399462
H       -2.3190822800   -0.1310845109   -0.2567532694
H        1.6386087928    0.7716245450   -1.1402212594
H        1.6067500744   -0.0439152493    0.4093675519
H       -1.6476896790    1.4606481077    1.4695512999
H       -0.3473245986    0.3961147766    2.0231835200
29   

C        1.8785085368    4.6475286404   -3.2837345172
C        2.0457693965    5.1570742794   -1.9934323281
C        1.1336026694    3.4817470588   -3.4782387674
C        1.4788441244    4.4951837114   -0.8980696840
C        0.5677955224    2.8210293644   -2.3822096760
C        0.7577989427    3.3052174171   -1.0702888146
C        0.1226482582    2.6820841782    0.1431417382
C       -0.6061604158   -1.5052701848   -0.0002297674
C        0.2652287787   -0.8015332812   -1.0491302166
C       -1.6089876777   -0.5085639964    0.5939227709
C        0.9714333510    0.4083329625   -0.4293108741
C       -0.8855935765    0.7065819546    1.1815933282
N       -0.0206725747    1.3103150615    0.1654569471
O       -0.3378686214    3.3865271630    1.0344786552
H        2.3137311132    5.1634282146   -4.1323730575
H        2.6077417818    6.0714235938   -1.8394750126
H        0.9829316945    3.0962880273   -4.4803701302
H        1.5977041511    4.9105076966    0.0978564979
H       -0.0388052675    1.9392289165   -2.5549294476
H        0.0298652281   -1.9036707259    0.7976481807
H       -1.1401424545   -2.3441832071   -0.4578897758
H       -0.3640357011   -0.4696232648   -1.8811981061
H        1.0081976328   -1.5010044007   -1.4446991865
H       -2.2056558715   -0.9944209699    1.3722811566
H       -2.2918087331   -0.1712226664   -0.1927048970
H        1.5967567307    0.8932687314   -1.1821711903
H        1.6494804478    0.0623559810    0.3582641147
H       -1.6363651278    1.4186168362    1.5413650017
H       -0.2792512558    0.4007758220    2.0408096507
29   

C        1.9172417238    4.5730242013   -3.2657272554
C        2.1254319660    5.0364167674   -1.9633478960
C        1.0663840530    3.4870281971   -3.4895601791
C        1.4897237337    4.4093908162   -0.8852766184
C        0.4321386960    2.8611189417   -2.4107180901
C        0.6528598945    3.3047590175   -1.0913114293
C       -0.0369390100    2.6934606582    0.0982890449
C       -0.5404260736   -1.5007785902    0.0025939687
C        0.2877762302   -0.7544775014   -1.0523565001
C       -1.5560377126   -0.5437350831    0.6396243767
C        0.9740738037    0.4646212274   -0.4284130139
C       -0.8519471541    0.6791392618    1.2351653639
N       -0.0318494650    1.3230502510    0.2065025505
O       -0.6073329104    3.4035325117    0.9178421693
H        2.4061336199    5.0621656442   -4.1008928474
H        2.7734423029    5.8876471362   -1.7871450849
H        0.8901683770    3.1358357021   -4.5000899612
H        1.6407344411    4.7847927366    0.1218930941
H       -0.2449542765    2.0343771908   -2.5954990502
H        0.1243656379   -1.8966962602    0.7778873221
H       -1.0620537982   -2.3452383787   -0.4591256603
H       -0.3690127789   -0.4258220813   -1.8642235254
H        1.0406261124   -1.4257626707   -1.4770145111
H       -2.1211059022   -1.0611778317    1.4211667758
H       -2.2660949534   -0.2099494770   -0.1241921349
H        1.5648693003    0.9792843322   -1.1893446763
H        1.6823405384    0.1271970628    0.3358426610
H       -1.6124364443    1.3600277110    1.6323543945
H       -0.2140925252    0.3734450797    2.0711229819
29   

C        1.9537026554    4.5060362781   -3.2911410609
C        2.2165423692    4.9180628321   -1.9810839226
C        1.0036881914    3.5085561057   -3.5293622873
C        1.5329467946    4.3300876313   -0.9102712197
C        0.3221703577    2.9216753416   -2.4574199218
C        0.5885659209    3.3207272298   -1.1339230950
C       -0.1414099641    2.7241810341    0.0409898917
C       -0.4752308457   -1.4453246416    0.0314762329
C        0.3247734369   -0.6782322218   -1.0309008861
C       -1.4862186327   -0.5070754701    0.7042571502
C        1.0098088641    0.5425335676   -0.4087693075
C       -0.7804054735    0.7150732186    1.2999777048
N        0.0032020765    1.3776856913    0.2551823682
O       -0.8203332849    3.4309238390    0.7753851558
H        2.4795890452    4.9653033230   -4.1207853815
H        2.9450488041    5.6988926008   -1.7935985775
H        0.7894653575    3.1950370241   -4.5449350694
H        1.7285616241    4.6627549068    0.1039778485
H       -0.4242247983    2.1580454659   -2.6475310394
H        0.2094094250   -1.8454882617    0.7869888375
H       -0.9987063647   -2.2884451414   -0.4306464374
H       -0.3513439803   -0.3477352644   -1.8260541122
H        1.0761849864   -1.3363723005   -1.4780880338
H       -2.0281515894   -1.0408923053    1.4911035757
H       -2.2169559282   -0.1704949058   -0.0386704317
H        1.5748687590    1.0726111494   -1.1790507919
H        1.7400498252    0.2089319513    0.3361540978
H       -1.5351732910    1.3810826389    1.7313776475
H       -0.1157157908    0.4048397993    2.1129004975
29   

C        1.9895111453    4.4306541564   -3.3297756086
C        2.2932148799    4.7752293368   -2.0090593628
C        0.9579353326    3.5244596937   -3.5926018544
C        1.5668771688    4.2125830212   -0.9528467427
C        0.2343294575    2.9629136018   -2.5347439794
C        0.5360635878    3.2990662160   -1.2029874935
C       -0.2392574638    2.7103111832   -0.0512225979
C       -0.4120257663   -1.4090488467    0.0438559225
C        0.3943534510   -0.6292088642   -1.0051473187
C       -1.4336586714   -0.4830378216    0.7191644426
C        1.0637222751    0.5939138070   -0.3700211470
C       -0.7383159117    0.7391764908    1.3275500186
N        0.0382313131    1.4124189910    0.2849942795
O       -1.0519163086    3.3874362877    0.5650805854
H        2.5481665842    4.8707037138   -4.1483488444
H        3.0872395316    5.4839743488   -1.8022260496
H        0.7139094444    3.2618371618   -4.6158647845
H        1.7970255082    4.4911855022    0.0701730525
H       -0.5720967659    2.2676173171   -2.7415075276
H        0.2685576399   -1.8130281083    0.8009017433
H       -0.9273704283   -2.2505029327   -0.4303481514
H       -0.2759461878   -0.2983816271   -1.8052311265
H        1.1548285553   -1.2789949879   -1.4491868566
H       -1.9756637192   -1.0270805464    1.4988736644
H       -2.1632459010   -0.1454012174   -0.0245502447
H        1.6282658807    1.1341133020   -1.1342837367
H        1.7909606175    0.2659113845    0.3802092694
H       -1.4945071291    1.3969348369    1.7688068995
H       -0.0699006061    0.4269171812    2.1365380954
29   

C        1.9597772185    4.4102608915   -3.3030147117
C        2.3244892145    4.6304122022   -1.9713058575
C        0.8475310994    3.6161170527   -3.5969084464
C        1.5784828776    4.0548856240   -0.9359369287
C        0.1047950288    3.0418474883   -2.5593021962
C        0.4674564300    3.2511289130   -1.2180446058
C       -0.3382812286    2.6448241007   -0.0958331504
C       -0.3290286621   -1.4195522769    0.0978553686
C        0.4854035730   -0.6210902325   -0.9315009365
C       -1.3826360422   -0.5166780482    0.7561662385
C        1.1142717943    0.6164796314   -0.2818338293
C       -0.7228576474    0.7185158080    1.3777610309
N        0.0518520592    1.4085301857    0.3454717757
O       -1.2834748422    3.2495576790    0.3933961608
H        2.5335600756    4.8603122630   -4.1055309796
H        3.1814626564    5.2529388637   -1.7397171090
H        0.5555866573    3.4506391035   -4.6279159294
H        1.8581498540    4.2372872079    0.0962021410
H       -0.7646167809    2.4350470272   -2.7887204420
H        0.3432410025   -1.8133213572    0.8675130275
H       -0.8180012567   -2.2690393386   -0.3898187167
H       -0.1735069973   -0.3032141758   -1.7463885958
H        1.2688114429   -1.2542658894   -1.3592999305
H       -1.9267055676   -1.0734409918    1.5253553980
H       -2.1060483271   -0.1927860423    0.0002880492
H        1.6808799684    1.1698133607   -1.0354471557
H        1.8321242897    0.3069740434    0.4850162834
H       -1.4954252705    1.3612945410    1.8127681367
H       -0.0581408045    0.4184864689    2.1943469999
29   

C        2.0135240522    4.4404972567   -3.3394677013
C        2.4312116124    4.4847832188   -2.0060938964
C        0.8140026724    3.8041185505   -3.6706060412
C        1.6517733947    3.8891113771   -1.0073823749
C        0.0384194578    3.2094884019   -2.6691505466
C        0.4557238615    3.2344389562   -1.3281257146
C       -0.4009551480    2.6217430880   -0.2491176929
C       -0.2782333946   -1.3978583974    0.1726471534
C        0.5546532009   -0.6283941357   -0.8638865631
C       -1.3707389029   -0.4891311468    0.7545084364
C        1.1374277513    0.6514740028   -0.2531815090
C       -0.7542779577    0.7849496167    1.3401302441
N        0.0389815591    1.4471841895    0.3035105214
O       -1.4451525112    3.1586354091    0.0978292253
H        2.6131458502    4.9064167459   -4.1135248327
H        3.3553256498    4.9878353074   -1.7443379966
H        0.4791083626    3.7780537356   -4.7015079571
H        1.9737852420    3.9386778991    0.0272550735
H       -0.9007000839    2.7304425045   -2.9253827549
H        0.3751076470   -1.7432743740    0.9808092357
H       -0.7340277417   -2.2778704633   -0.2925531890
H       -0.0833916615   -0.3615033212   -1.7131064470
H        1.3638059214   -1.2632974071   -1.2377533936
H       -1.9291324682   -1.0220623128    1.5302706915
H       -2.0748461393   -0.2137458256   -0.0380145660
H        1.7109769811    1.1804222804   -1.0186682168
H        1.8392158399    0.3949393903    0.5472906746
H       -1.5502523720    1.4312935350    1.7249070314
H       -0.1095100319    0.5337853950    2.1885639089
29   

C        2.0040071967    4.4822144026   -3.3445067027
C        2.4607582608    4.3647151917   -2.0288672014
C        0.7514330454    3.9697207517   -3.6920719946
C        1.6678471408    3.7296541807   -1.0656286703
C       -0.0370671427    3.3353889150   -2.7257706583
C        0.4186642098    3.1916231022   -1.4044098548
C       -0.4615813800    2.5462008064   -0.3670669440
C       -0.2496551122   -1.3958369388    0.2697917742
C        0.5921123808   -0.6574378812   -0.7817113622
C       -1.3544044581   -0.4743420312    0.8062017035
C        1.1566791963    0.6500643233   -0.2127202768
C       -0.7504335948    0.8229956653    1.3527195401
N        0.0449420713    1.4570684856    0.3002046945
O       -1.5792037286    2.9909078662   -0.1362023367
H        2.6141968795    4.9785567727   -4.0908919965
H        3.4260670690    4.7737572298   -1.7524430135
H        0.3850968042    4.0707635899   -4.7075436491
H        2.0224249263    3.6585755631   -0.0429621789
H       -1.0177502728    2.9554410192   -2.9931099187
H        0.3951372375   -1.7093364929    1.0975040633
H       -0.6944867257   -2.2939541935   -0.1708515370
H       -0.0364466651   -0.4275112867   -1.6487247132
H        1.4109665961   -1.2989273323   -1.1216790879
H       -1.9186231551   -0.9829549694    1.5939204711
H       -2.0511136030   -0.2312334085   -0.0033969669
H        1.7303197037    1.1521765881   -0.9953677436
H        1.8531197264    0.4317315044    0.6035831214
H       -1.5513340726    1.4789291116    1.7104694176
H       -0.1102706819    0.6047888200    2.2136211637
29   

C        1.9520995959    4.5616885749   -3.2966203964
C        2.4479142407    4.2845382525   -2.0202558771
C        0.6635371078    4.1491853356   -3.6430008324
C        1.6581560684    3.5898808287   -1.0962458673
C       -0.1211860155    3.4548750217   -2.7158434540
C        0.3702120281    3.1489363833   -1.4342014986
C       -0.5136245038    2.4340216378   -0.4489236937
C       -0.2068804856   -1.4248393743    0.4093634506
C        0.6235594372   -0.7225143751   -0.6741455228
C       -1.3228121767   -0.4943627034    0.9040900590
C        1.1701534507    0.6178455121   -0.1674011150
C       -0.7339407269    0.8331124663    1.3926496034
N        0.0519997049    1.4359654201    0.3146187933
O       -1.6806583340    2.7777435736   -0.3024833033
H        2.5601009816    5.1039096433   -4.0122304854
H        3.4419673340    4.6165173254   -1.7424520832
H        0.2664300294    4.3729970541   -4.6267756018
H        2.0482666426    3.4027620975   -0.1016267847
H       -1.1284051304    3.1515854226   -2.9834156896
H        0.4422038569   -1.6929679547    1.2494981080
H       -0.6401000399   -2.3470678207    0.0086909442
H       -0.0091374660   -0.5410962790   -1.5496568129
H        1.4510931460   -1.3668122080   -0.9867781663
H       -1.8813705693   -0.9746057324    1.7132800353
H       -2.0220836698   -0.2958800871    0.0844578489
H        1.7270115429    1.0877587017   -0.9810260109
H        1.8764608128    0.4484545384    0.6520656244
H       -1.5417762537    1.4951510479    1.7228632946
H       -0.0907675100    0.6598973900    2.2614431368
29   

C        1.9576457709    4.6534318379   -3.3048710247
C        2.4834968144    4.2306650524   -2.0824014865
C        0.6397864539    4.3349450477   -3.6362516764
C        1.6946936394    3.4849490725   -1.1979881731
C       -0.1435973253    3.5894616231   -2.7488447089
C        0.3730958681    3.1380447618   -1.5192833069
C       -0.5151527882    2.3495080386   -0.5965922448
C       -0.1957484688   -1.4182320271    0.4911354965
C        0.6390712303   -0.7725136415   -0.6224434783
C       -1.3094755133   -0.4601247352    0.9335640759
C        1.1886044405    0.5897315856   -0.1819590934
C       -0.7168891152    0.8878902499    1.3592035139
N        0.0777577817    1.4404006854    0.2603439713
O       -1.7123191504    2.6048727210   -0.5290699750
H        2.5656332982    5.2342045915   -3.9895688819
H        3.5016997146    4.4892180872   -1.8142184034
H        0.2192991409    4.6686874187   -4.5782794801
H        2.1177868603    3.1954378531   -0.2425233314
H       -1.1708835747    3.3555538611   -3.0104229434
H        0.4496023484   -1.6466075925    1.3457051913
H       -0.6308188283   -2.3574780184    0.1343254403
H        0.0087223864   -0.6326944537   -1.5072667035
H        1.4653807209   -1.4335655780   -0.9016496589
H       -1.8743848871   -0.8977463897    1.7622053323
H       -2.0038920284   -0.2999660571    0.1014168724
H        1.7402655175    1.0144013731   -1.0234634600
H        1.8982357478    0.4596607035    0.6418436928
H       -1.5235432429    1.5693644188    1.6508508044
H       -0.0802235390    0.7545644947    2.2396937692
29   

C        1.9379970222    4.7666770421   -3.2793091264
C        2.4990911301    4.2038504435   -2.1323674100
C        0.5950898029    4.5326156404   -3.5737639375
C        1.7207565962    3.4034737907   -1.2870287281
C       -0.1775005212    3.7324550681   -2.7257221398
C        0.3695258337    3.1418234348   -1.5677926079
C       -0.5160935644    2.2740913200   -0.7136222254
C       -0.2138863982   -1.4025497871    0.6069667606
C        0.6336748657   -0.8211195179   -0.5307168709
C       -1.3294996394   -0.4182116828    0.9791069550
C        1.1836104488    0.5613726327   -0.1601431722
C       -0.7380478135    0.9501016743    1.3384935623
N        0.0788736466    1.4458954107    0.2283664508
O       -1.7305411691    2.4451643853   -0.7227473219
H        2.5386701476    5.3885470972   -3.9336927744
H        3.5385420234    4.3956100532   -1.8909665474
H        0.1469384044    4.9712408969   -4.4582888228
H        2.1843815522    3.0175300089   -0.3869458864
H       -1.2218104316    3.5614109192   -2.9682202894
H        0.4206491718   -1.5838309102    1.4806674788
H       -0.6472576030   -2.3592276939    0.2974811424
H        0.0123022229   -0.7279428142   -1.4279721768
H        1.4604659042   -1.4985654181   -0.7658158849
H       -1.9085310014   -0.8076522779    1.8218588170
H       -2.0110031963   -0.3030748254    0.1289926984
H        1.7361482448    0.9360379117   -1.0247367636
H        1.8907469168    0.4741948737    0.6714588236
H       -1.5473670350    1.6491442422    1.5764488397
H       -0.1186226305    0.8636982425    2.2369004363
29   

C        1.8843180363    4.6142152446   -3.5347713922
C        2.1087693263    3.2655955044   -3.2594413377
C        0.8792082661    5.2956691472   -2.8508196154
C        1.3349775302    2.6027751988   -2.2986016715
C        0.1092918157    4.6286178364   -1.8925896378
C        0.3195241318    3.2657482849   -1.5883655174
C       -0.5218261705    2.6362666259   -0.5067391755
C        0.1629153622   -1.4314043475    0.6245741236
C        1.2845708433   -0.5652015942    0.0355369179
C       -1.1946185673   -0.9627524419    0.0853277763
C        1.0245151508    0.9123480047    0.3452778134
C       -1.4061411341    0.5279928229    0.3652741513
N       -0.2880606062    1.3022504040   -0.1759871354
O       -1.5363817570    3.1995287383   -0.1091435618
H        2.4821426925    5.1281742121   -4.2792063708
H        2.8799010202    2.7270019696   -3.7986702796
H        0.6926401671    6.3432889039   -3.0589120065
H        1.5230572406    1.5468214417   -2.1553994696
H       -0.6644561548    5.1810381643   -1.3684179876
H        0.1708551617   -1.3457132348    1.7166237465
H        0.3248409712   -2.4829851401    0.3671496008
H        1.3270741942   -0.7101698386   -1.0488657633
H        2.2479179463   -0.8688158693    0.4568227921
H       -2.0015594765   -1.5423853320    0.5444974954
H       -1.2309444089   -1.1306847772   -0.9958544458
H        1.8350641437    1.5289503638   -0.0507436029
H        1.0319011276    1.0558293852    1.4312902515
H       -2.3527840479    0.8435131559   -0.0871620581
H       -1.4788593421    0.6978255843    1.4451076454
29   

C        1.9442733120    4.5898244487   -3.4600811191
C        2.0409934913    3.2070855978   -3.2987280055
C        1.0114449534    5.3063178264   -2.7105682853
C        1.2120727534    2.5446799675   -2.3850198052
C        0.1859774206    4.6394970823   -1.7992913366
C        0.2739641300    3.2451463553   -1.6088681681
C       -0.6309372608    2.5946446853   -0.5969014588
C        0.2316531243   -1.3936548847    0.6690269909
C        1.3069854691   -0.5094071952    0.0238999190
C       -1.1534606969   -0.9865410144    0.1514992727
C        1.0102455686    0.9684910389    0.2974625634
C       -1.4113017250    0.5022115547    0.4007209877
N       -0.3338071959    1.3029228027   -0.1837076268
O       -1.6967363487    3.1201332939   -0.2940671998
H        2.5837509248    5.1038558172   -4.1690128178
H        2.7537373697    2.6436079168   -3.8903258828
H        0.9226472596    6.3798670133   -2.8339385635
H        1.2919361983    1.4664752787   -2.3181024794
H       -0.5366825272    5.2109092481   -1.2249461777
H        0.2645685984   -1.2749470787    1.7574934522
H        0.4224106714   -2.4464984239    0.4377938676
H        1.3232907506   -0.6854227242   -1.0565237713
H        2.2914860800   -0.7699981448    0.4246100902
H       -1.9285533522   -1.5823430214    0.6436425793
H       -1.2090072816   -1.1827970821   -0.9241424453
H        1.7880725768    1.5925170738   -0.1489610267
H        1.0535666263    1.1471947093    1.3773282718
H       -2.3796434350    0.7697134495   -0.0364840846
H       -1.4663512500    0.6958931298    1.4774496625
29   

C        2.0244825924    4.5798106984   -3.3812298013
C        2.0125687405    3.1844461577   -3.3307037044
C        1.1474834253    5.3070737264   -2.5749327621
C        1.1307516261    2.5196872818   -2.4700307991
C        0.2688256103    4.6376424201   -1.7165250538
C        0.2538436721    3.2319678160   -1.6370129072
C       -0.7185122337    2.5597071338   -0.7068303022
C        0.2716490199   -1.3418498573    0.6906432393
C        1.3120282386   -0.4458232144    0.0056054633
C       -1.1333760251   -0.9749615436    0.1974744928
C        0.9914271990    1.0304984572    0.2595238394
C       -1.4215054672    0.5107256975    0.4314669407
N       -0.3741550529    1.3262138034   -0.1870526446
O       -1.8289440935    3.0432438374   -0.5179149595
H        2.7038796326    5.0964054524   -4.0500376745
H        2.6807658954    2.6151585399   -3.9670417657
H        1.1415250121    6.3905288990   -2.6161707579
H        1.1198184523    1.4357149621   -2.4744718587
H       -0.4172499541    5.2112557089   -1.1011368434
H        0.3260530541   -1.2034288193    1.7758942430
H        0.4809350386   -2.3940634436    0.4729263642
H        1.3068631806   -0.6403977752   -1.0717031875
H        2.3111850483   -0.6784057674    0.3868192456
H       -1.8835172409   -1.5817723022    0.7141943499
H       -1.2070389117   -1.1881936744   -0.8739064580
H        1.7449220300    1.6583797533   -0.2213237478
H        1.0620737547    1.2319787733    1.3338573452
H       -2.4062908796    0.7457616599    0.0129054462
H       -1.4582607076    0.7190626065    1.5060897225
29   

C        2.0563993575    4.5566341012   -3.2888255425
C        1.9736791633    3.1633323908   -3.3478500380
C        1.2162779242    5.2636436573   -2.4258004832
C        1.0575696644    2.4799349764   -2.5394217527
C        0.3030651274    4.5754848584   -1.6195365209
C        0.2217359212    3.1717670371   -1.6503990003
C       -0.7972227827    2.4656673114   -0.7978951973
C        0.3209092103   -1.3298212974    0.7169882016
C        1.3227446452   -0.4144041813    0.0002403911
C       -1.1056521682   -0.9947931415    0.2637475093
C        0.9794813347    1.0563786427    0.2561074566
C       -1.4196904194    0.4847869990    0.5041907809
N       -0.4063923041    1.3168197263   -0.1485420159
O       -1.9472899434    2.8832148400   -0.7330794143
H        2.7615950736    5.0884342753   -3.9178349655
H        2.6129346514    2.6119024219   -4.0281385932
H        1.2644095547    6.3460600747   -2.3850124478
H        0.9877478258    1.4004321743   -2.6159892674
H       -0.3598693435    5.1305132181   -0.9633857746
H        0.4032663531   -1.1870578237    1.7998758536
H        0.5463161963   -2.3780118756    0.4959200718
H        1.2915463452   -0.6133411409   -1.0758338565
H        2.3369520628   -0.6244324506    0.3538145643
H       -1.8270750766   -1.6172463454    0.8022455113
H       -1.2053119340   -1.2117024479   -0.8048780349
H        1.7055674100    1.6942990835   -0.2527019776
H        1.0795313465    1.2677810030    1.3261222194
H       -2.4232636729    0.6949517285    0.1187803050
H       -1.4271759557    0.6956657177    1.5787629893
29   

C        2.0989298050    4.5257178517   -3.2484953784
C        1.9387691006    3.1466007824   -3.4083249628
C        1.3076737608    5.2131374797   -2.3245314862
C        0.9933970629    2.4570590410   -2.6399486660
C        0.3647488058    4.5191041564   -1.5582315193
C        0.2081405226    3.1291489630   -1.6930707911
C       -0.8442122980    2.4050396348   -0.8950834800
C        0.3295482691   -1.2700579873    0.7522146622
C        1.3086388602   -0.3506999855    0.0088013661
C       -1.1112556532   -0.9421211194    0.3387156010
C        0.9655332362    1.1194878619    0.2679699530
C       -1.4251248769    0.5364039839    0.5877354229
N       -0.4330125161    1.3659064177   -0.0996549513
O       -2.0180241299    2.7482669459   -0.9600292211
H        2.8264969267    5.0627933521   -3.8468050049
H        2.5406051985    2.6123075962   -4.1348625168
H        1.4163612222    6.2854813096   -2.2067767658
H        0.8620894205    1.3902343081   -2.7851365828
H       -0.2626445623    5.0582615731   -0.8558932190
H        0.4406933757   -1.1266871758    1.8323940485
H        0.5538032915   -2.3172724131    0.5253323626
H        1.2510449281   -0.5520366447   -1.0657836939
H        2.3326897653   -0.5548964869    0.3364928733
H       -1.8140974204   -1.5681373641    0.8972010832
H       -1.2398872845   -1.1599776318   -0.7267241991
H        1.6736086351    1.7562734924   -0.2675358019
H        1.0950461111    1.3397047399    1.3329711203
H       -2.4426780786    0.7421086334    0.2388666382
H       -1.3976828880    0.7496214738    1.6613825537
29   

C        2.1036019025    4.4907738683   -3.2036404932
C        1.8690547828    3.1392555100   -3.4732414273
C        1.3690973373    5.1375508481   -2.2057264873
C        0.9046654996    2.4360098669   -2.7418843754
C        0.4066549920    4.4304544028   -1.4763509541
C        0.1739387177    3.0681984938   -1.7274923633
C       -0.8892720635    2.3177926723   -0.9654632325
C        0.3475977707   -1.2116571362    0.7975674334
C        1.3039800668   -0.2719121972    0.0488841576
C       -1.1053921695   -0.9003435888    0.4119669270
C        0.9428594704    1.1920030757    0.3203676985
C       -1.4329054246    0.5727707082    0.6766053554
N       -0.4638988048    1.4114957359   -0.0312514368
O       -2.0758168337    2.5442643817   -1.1645104177
H        2.8460556437    5.0386119681   -3.7732271792
H        2.4284880613    2.6377342441   -4.2549440080
H        1.5378050653    6.1890032309   -2.0017967471
H        0.7163555407    1.3914457478   -2.9654909885
H       -0.1748950169    4.9382282781   -0.7140715918
H        0.4742855030   -1.0773275177    1.8771260716
H        0.5825420118   -2.2534822659    0.5569742632
H        1.2357050598   -0.4666423959   -1.0264086439
H        2.3351496146   -0.4631861089    0.3616720744
H       -1.7894916511   -1.5393397816    0.9788837498
H       -1.2508123490   -1.1129322209   -0.6524787485
H        1.6330725620    1.8407370850   -0.2249553806
H        1.0826439773    1.4127200483    1.3838932141
H       -2.4613764212    0.7713797398    0.3572408333
H       -1.3812269186    0.7818373097    1.7500901183
29   

C        2.0565429831    4.4477698796   -3.1558481134
C        1.7403814154    3.1434433337   -3.5480787176
C        1.4013645249    5.0234814186   -2.0632462058
C        0.7716494046    2.4161648933   -2.8466074454
C        0.4342729609    4.2931012888   -1.3634903520
C        0.1149901674    2.9794732965   -1.7455068607
C       -0.9363997098    2.1890865916   -1.0064844303
C        0.3889959431   -1.1655494736    0.8993528929
C        1.3185120731   -0.1964909627    0.1530970164
C       -1.0725166956   -0.9068261141    0.5051821597
C        0.9037617062    1.2563944117    0.4095582407
C       -1.4487485631    0.5570717853    0.7558127078
N       -0.5057580655    1.4164723704    0.0385988742
O       -2.1141816519    2.2558904505   -1.3332671163
H        2.8025347944    5.0141662024   -3.7021949607
H        2.2405119175    2.6973161512   -4.4003704748
H        1.6367128182    6.0380867342   -1.7619250544
H        0.5210157600    1.4085130326   -3.1606233444
H       -0.0814616512    4.7453652071   -0.5231289764
H        0.5046201641   -1.0223670418    1.9789510427
H        0.6610822150   -2.1997545421    0.6649942335
H        1.2667155880   -0.4004608875   -0.9215754591
H        2.3530588551   -0.3494213695    0.4755755614
H       -1.7371143972   -1.5634307490    1.0751266342
H       -1.2067848023   -1.1330403253   -0.5579925972
H        1.5752066914    1.9236295485   -0.1373220326
H        1.0242861885    1.4928237593    1.4719906850
H       -2.4832771177    0.7235529370    0.4375930284
H       -1.4028601597    0.7785045910    1.8270499485
29   

C        2.0604694435    4.4440652696   -3.1556830623
C        1.6625147431    3.2037608926   -3.6644145545
C        1.4914397168    4.9263194842   -1.9730880618
C        0.6971699379    2.4466717833   -2.9903364219
C        0.5275379551    4.1668962417   -1.3003987418
C        0.1238952267    2.9175151631   -1.8028996571
C       -0.9153942193    2.0836017344   -1.0971213059
C        0.4074771522   -1.1131110523    0.9826493273
C        1.3377823496   -0.1361120488    0.2473898530
C       -1.0472602829   -0.8944933060    0.5417372409
C        0.8830217522    1.3125730153    0.4596732811
C       -1.4592262954    0.5658725854    0.7525164601
N       -0.5168262311    1.4292583557    0.0394896749
O       -2.0533732203    1.9966185482   -1.5402649280
H        2.8040061230    5.0333746702   -3.6807272724
H        2.0966600897    2.8304487217   -4.5851316713
H        1.7921030618    5.8911897595   -1.5803657678
H        0.3823067699    1.4896076748   -3.3928803845
H        0.0812231255    4.5464867533   -0.3875571709
H        0.4876960164   -0.9488864762    2.0624052437
H        0.7090685452   -2.1448305474    0.7748386053
H        1.3246261035   -0.3622181376   -0.8241455893
H        2.3649232162   -0.2590882424    0.6044189452
H       -1.7140548734   -1.5537997469    1.1059266220
H       -1.1466698810   -1.1440302534   -0.5201365306
H        1.5563634438    1.9803899718   -0.0837078075
H        0.9649179885    1.5758976537    1.5194076526
H       -2.4890459363    0.7078629948    0.4079659344
H       -1.4433672664    0.8100404671    1.8196499611
29   

C        1.8501891106    4.4523160163   -3.1940661996
C        0.5185081361    4.5713998659   -2.7843851995
C        2.7419270558    3.6775800831   -2.4462221720
C        0.0784906654    3.9138730771   -1.6296048420
C        2.2998971976    3.0201624884   -1.2926830552
C        0.9593508783    3.1269401888   -0.8775414477
C        0.4508480617    2.4438189795    0.3644946993
C       -1.2071237391   -1.1875489807    0.0749883506
C       -0.6637618475   -0.4025451321   -1.1283793744
C       -1.2896918740   -0.2768343965    1.3084485968
C        0.6866006537    0.2437798159   -0.7960666116
C        0.0739893892    0.3585588782    1.5973269461
N        0.5268349420    1.0730192780    0.4028019599
O       -0.0086205945    3.0988394793    1.2918109227
H        2.1919857044    4.9659445746   -4.0857806799
H       -0.1732690905    5.1788968257   -3.3570556971
H        3.7773427491    3.5915361268   -2.7562242497
H       -0.9522151197    4.0187942431   -1.3066932980
H        2.9970004858    2.4288145602   -0.7088161081
H       -0.5417331759   -2.0302525071    0.2900830190
H       -2.1980487636   -1.5905163837   -0.1581042540
H       -1.3784423560    0.3821953180   -1.3986688250
H       -0.5549264488   -1.0685513801   -1.9898925290
H       -1.6243486333   -0.8510404262    2.1778325943
H       -2.0226319824    0.5167230354    1.1268300311
H        1.0296786754    0.8049238081   -1.6684163214
H        1.4340400791   -0.5327249914   -0.6025834486
H       -0.0066025350    1.0223414300    2.4648117717
H        0.8014652388   -0.4171675328    1.8573482519
29   

C        1.8805562627    4.5310231076   -3.1485646609
C        0.5728829104    4.7477745025   -2.7042234961
C        2.7026543521    3.6234636338   -2.4746126866
C        0.0856306654    4.0526737700   -1.5912064941
C        2.2138511676    2.9287566030   -1.3625750300
C        0.8909203757    3.1245347830   -0.9182011646
C        0.3294387656    2.4302020805    0.2927165648
C       -1.1410845337   -1.2576489283    0.1695986368
C       -0.6365680181   -0.4990188466   -1.0663266998
C       -1.2405202493   -0.3054155670    1.3694704536
C        0.6941518042    0.2054093639   -0.7746733162
C        0.1058248897    0.3820417531    1.6189259287
N        0.5249391812    1.0711664282    0.3972186980
O       -0.2424150479    3.0717039962    1.1662289696
H        2.2590066543    5.0734052878   -4.0078524835
H       -0.0634294015    5.4606590381   -3.2165266517
H        3.7219838243    3.4645356194   -2.8081998853
H       -0.9246836766    4.2370774664   -1.2399553747
H        2.8644335278    2.2414348970   -0.8326758934
H       -0.4463626541   -2.0700749040    0.4070407079
H       -2.1207957792   -1.7001731272   -0.0378773928
H       -1.3807335710    0.2507292939   -1.3558409256
H       -0.5144785648   -1.1911406377   -1.9052072603
H       -1.5482510020   -0.8574264108    2.2627885096
H       -2.0001209625    0.4576493276    1.1673113551
H        0.9973923460    0.7491045076   -1.6720247818
H        1.4729165780   -0.5364006187   -0.5689432018
H        0.0154303419    1.0733989206    2.4637427218
H        0.8599361293   -0.3613422766    1.8967667732
29   

C        1.9376477422    4.6024056774   -3.1052365540
C        0.6597671692    4.9009768781   -2.6250774649
C        2.6759779014    3.5711112650   -2.5192826992
C        0.1165237223    4.1620165922   -1.5677071882
C        2.1315705620    2.8326776644   -1.4626283197
C        0.8294446242    3.1020724471   -0.9897505518
C        0.2101696836    2.3915637721    0.1829030555
C       -1.0915166338   -1.3332907456    0.2658951941
C       -0.6327229197   -0.6143945683   -1.0099511047
C       -1.2015983744   -0.3310596477    1.4227151835
C        0.6790312963    0.1445736140   -0.7749349011
C        0.1271625992    0.4071268340    1.6179648583
N        0.5103726477    1.0558023403    0.3624348831
O       -0.4541208167    3.0147638858    1.0035873480
H        2.3597904189    5.1785633039   -3.9210790862
H        0.0901325583    5.7117574197   -3.0651887483
H        3.6762056877    3.3514650269   -2.8754500411
H       -0.8689809212    4.4146812638   -1.1889673214
H        2.7314052443    2.0592506445   -0.9957721925
H       -0.3673124469   -2.1121503110    0.5264136567
H       -2.0600113549   -1.8146205680    0.0953110260
H       -1.4059020441    0.0979355714   -1.3174576186
H       -0.5030077345   -1.3379590783   -1.8207167635
H       -1.4786390701   -0.8507032993    2.3449657368
H       -1.9875948153    0.3986626115    1.1991126394
H        0.9382529550    0.6616267894   -1.7013162080
H        1.4875379239   -0.5616593845   -0.5588897012
H        0.0289835666    1.1337903756    2.4318298256
H        0.9072339030   -0.3003322407    1.9169716675
29   

C        1.9962357777    4.6922613852   -3.0681433256
C        0.7560048104    5.0577073996   -2.5403909442
C        2.6430546074    3.5508480116   -2.5900029420
C        0.1566419748    4.2747674624   -1.5470713490
C        2.0430536932    2.7682799355   -1.5970505981
C        0.7680906892    3.0993706704   -1.0844893482
C        0.0934719097    2.3673443462    0.0458908221
C       -1.0412494962   -1.3818085514    0.3746458661
C       -0.6362095753   -0.7170834013   -0.9468046399
C       -1.1661897124   -0.3204902969    1.4750783605
C        0.6514099075    0.0994678056   -0.7835559935
C        0.1391293657    0.4730975738    1.6028131534
N        0.4849115239    1.0651225231    0.3085310300
O       -0.6531413480    2.9673497688    0.8122298469
H        2.4623040314    5.3022738347   -3.8339204169
H        0.2590401439    5.9545811046   -2.8928026143
H        3.6191108770    3.2805557338   -2.9770457350
H       -0.7980106849    4.5855682001   -1.1338774882
H        2.5928564542    1.9191548629   -1.2081623958
H       -0.2832159219   -2.1180756780    0.6613597884
H       -1.9943732765   -1.9063585865    0.2513711047
H       -1.4414508217   -0.0500339476   -1.2730679910
H       -0.4977246974   -1.4776088943   -1.7215253158
H       -1.4086348437   -0.7962464242    2.4301213196
H       -1.9817533531    0.3674965101    1.2262870603
H        0.8607608850    0.5800495301   -1.7419128587
H        1.4919260157   -0.5651227160   -0.5576576610
H        0.0280541944    1.2421600600    2.3750766650
H        0.9475889714   -0.1890852784    1.9287496149
29   

C        2.0467095083    4.7868498954   -3.0195128624
C        0.8528155547    5.2003124525   -2.4266000948
C        2.5978795446    3.5518841424   -2.6747598522
C        0.2017666280    4.3728056510   -1.5046811491
C        1.9472223767    2.7240209722   -1.7527707485
C        0.7089210699    3.1030459687   -1.1822024210
C       -0.0175743968    2.3397513217   -0.1006412949
C       -0.9907944626   -1.4163054275    0.4929083574
C       -0.6335532128   -0.8193558258   -0.8727003463
C       -1.1450169128   -0.2916290505    1.5234543923
C        0.6227908879    0.0549248005   -0.7841663512
C        0.1299567764    0.5581030288    1.5825842943
N        0.4487764766    1.0798805817    0.2510465536
O       -0.8480336153    2.9068458526    0.6027355907
H        2.5530018972    5.4310271338   -3.7297603251
H        0.4315991307    6.1686572736   -2.6724627272
H        3.5427660873    3.2430127400   -3.1075811234
H       -0.7148831497    4.7285292972   -1.0444228601
H        2.4460220781    1.8076927766   -1.4638830237
H       -0.1987354841   -2.1012202524    0.8129085008
H       -1.9231214429   -1.9855188038    0.4182313849
H       -1.4699179459   -0.2051089876   -1.2234760335
H       -0.4777740199   -1.6196727712   -1.6028002674
H       -1.3588112646   -0.7129521460    2.5103238771
H       -1.9897666935    0.3464761607    1.2412792844
H        0.7844103405    0.4889236049   -1.7737289070
H        1.4950467354   -0.5620672940   -0.5438944656
H       -0.0053511183    1.3723732671    2.3029482664
H        0.9652867900   -0.0497674191    1.9444635138
