14   
Generated by ForceBalance from scan.xyz: Frame 1 of 24
C       -1.7558264155   -0.9528791971   -2.2501832672
C       -1.4958244089    1.1779288987    0.5641555362
C        0.3480378079    1.2247141887    2.1998463793
N       -1.2308289348   -0.3716012659   -1.2356474724
N       -0.2476247682    0.8311349002    0.9318250382
N       -1.9106896729    0.6503424513   -0.6527429516
S       -2.5371503398    2.1561867421    1.4367090408
H       -1.1950739266   -1.7604238629   -2.7112749415
H       -2.7296886236   -0.6775869387   -2.6688656331
H        0.3483054285    2.3129373516    2.2988229416
H        1.3766692270    0.8585125814    2.2204267132
H       -0.2069236166    0.8056842753    3.0458774851
H        0.2198730541    0.1484116638    0.3446725861
H       -2.8810309490    0.8437096380   -0.8991851627
14   
Generated by ForceBalance from scan.xyz: Frame 2 of 24
C       -1.7938758981   -0.9871870967   -2.2003904050
C       -1.4619942239    1.2056618058    0.5380974954
C        0.3463167179    1.2059304637    2.2127044226
N       -1.2272833166   -0.3813609620   -1.2246957099
N       -0.1992123065    0.9072624887    0.8968325687
N       -1.8260726302    0.7433596180   -0.7301395330
S       -2.5779177548    2.0243086051    1.4760662786
H       -1.3039851679   -1.8728332499   -2.5944891601
H       -2.7379766785   -0.6607170828   -2.6498125199
H        0.2963513863    2.2795779436    2.4088184878
H        1.3892273380    0.8826672942    2.2303743359
H       -0.2122668279    0.6891091064    3.0005604549
H        0.2986330176    0.2701053184    0.2837198572
H       -2.8102802593    0.9108930715   -0.9429672885
14   
Generated by ForceBalance from scan.xyz: Frame 3 of 24
C       -1.8479524110   -1.0124147423   -2.1423239398
C       -1.4304313929    1.2353666593    0.5153309250
C        0.3398292883    1.2062006456    2.2285591159
N       -1.2424369826   -0.4060337708   -1.1918856193
N       -0.1534733476    1.0039521755    0.8740383171
N       -1.7379765714    0.8121648785   -0.7905060025
S       -2.6146388339    1.8901915467    1.4929562590
H       -1.4431039491   -1.9669163167   -2.4666466963
H       -2.7452565347   -0.6235474363   -2.6363865904
H        0.2143546958    2.2507329393    2.5225862880
H        1.4010230214    0.9496256105    2.2476407146
H       -0.2039982521    0.5820634680    2.9463299991
H        0.3860795857    0.4259596450    0.2380749543
H       -2.7150052319    1.0042621885   -1.0184355171
14   
Generated by ForceBalance from scan.xyz: Frame 4 of 24
C       -1.9041124685   -1.0554013564   -2.1135263180
C       -1.4059167339    1.2234718981    0.4762235382
C        0.3160462589    1.2106027103    2.2398171608
N       -1.2686742080   -0.4711378562   -1.1697504364
N       -0.1247814500    1.0727112123    0.8595885305
N       -1.6322737567    0.8278183045   -0.8656496234
S       -2.6611353943    1.7228665096    1.4519104228
H       -1.6044721836   -2.0688782628   -2.3658447962
H       -2.7275408106   -0.5937080396   -2.6703027984
H        0.0848727358    2.2126531189    2.6081729206
H        1.3957839098    1.0517631216    2.2731696736
H       -0.1850306063    0.4840645337    2.8893265499
H        0.4820846233    0.5965257695    0.2011090356
H       -2.5838592219    1.0784360237   -1.1424806703
14   
Generated by ForceBalance from scan.xyz: Frame 5 of 24
C       -1.9947668228   -1.0481101863   -2.0735481387
C       -1.3488043854    1.1917238763    0.4880229470
C        0.3514582704    1.2298377069    2.2746741450
N       -1.3180039768   -0.5225805388   -1.1249391777
N       -0.0670523511    1.1231160677    0.8855240033
N       -1.5052019016    0.8340187244   -0.8875456606
S       -2.6497965917    1.5413075266    1.4630538056
H       -1.8296792678   -2.1019570165   -2.2815884669
H       -2.7254944620   -0.4990051690   -2.6789835608
H        0.0642167826    2.2031014106    2.6809568142
H        1.4370270550    1.1225863827    2.3179399052
H       -0.1219946135    0.4528774026    2.8845584164
H        0.6000531047    0.8039226662    0.1925081261
H       -2.4137802789    1.1747061896   -1.2118936217
14   
Generated by ForceBalance from scan.xyz: Frame 6 of 24
C       -2.0990738697   -1.0451641733   -2.0699326321
C       -1.3132238204    1.1206623110    0.4925666724
C        0.3515265924    1.2905713406    2.3062685837
N       -1.3976324786   -0.5956334713   -1.1013182722
N       -0.0387839168    1.1511323597    0.9124098939
N       -1.3913780404    0.7852047761   -0.9085609514
S       -2.6555761941    1.3256638192    1.4471135020
H       -2.0748698006   -2.1166087529   -2.2514665744
H       -2.7167543683   -0.4144772820   -2.7207462255
H       -0.0273446870    2.2325268903    2.7125997467
H        1.4414987489    1.2777781585    2.3649519952
H       -0.0613596236    0.4718779737    2.9048749555
H        0.6666057698    0.9620193486    0.2099597803
H       -2.2294075189    1.2280099507   -1.2963493713
14   
Generated by ForceBalance from scan.xyz: Frame 7 of 24
C       -2.2145164940   -1.0300671239   -2.1122182718
C       -1.2754753390    0.9923273210    0.5113176731
C        0.3435064546    1.3637207844    2.3378416966
N       -1.5099712205   -0.6933993718   -1.1017749890
N       -0.0149499223    1.1454878033    0.9456474801
N       -1.2877202884    0.6700921731   -0.9063373761
S       -2.6410218528    1.0724526723    1.4469772813
H       -2.3491164423   -2.0924994434   -2.2990343267
H       -2.6848617224   -0.3118781327   -2.7954242765
H       -0.1375262071    2.2713203535    2.7136886289
H        1.4281247527    1.4661420190    2.4065008089
H        0.0101812967    0.5233259693    2.9554463376
H        0.7100315531    1.0185246729    0.2490137625
H       -2.0163611709    1.2369259005   -1.3521877421
14   
Generated by ForceBalance from scan.xyz: Frame 8 of 24
C       -2.3212569983   -0.9870103092   -2.1902031604
C       -1.2290766339    0.8050422566    0.5647613909
C        0.3421915186    1.4731592871    2.3505551475
N       -1.6629856235   -0.7995422819   -1.1120969727
N        0.0115719156    1.1122930804    0.9813275198
N       -1.2115091694    0.4894652454   -0.8563033098
S       -2.5878728866    0.7925158221    1.5110150433
H       -2.6228668589   -2.0044874127   -2.4255478524
H       -2.5932979351   -0.1837121248   -2.8870460828
H       -0.2315018510    2.3522073969    2.6589527191
H        1.4103956087    1.6916972911    2.4048845859
H        0.0958204977    0.6533472771    3.0329448437
H        0.7467693065    1.0042362006    0.2922944879
H       -1.7559386539    1.2004306372   -1.3564885752
14   
Generated by ForceBalance from scan.xyz: Frame 9 of 24
C       -2.3528132781   -0.8790537244   -2.3257678883
C       -1.3597829719    0.6008562102    0.7333066573
C        0.3517190488    1.5426058942    2.2563759717
N       -2.3077247412   -0.6742477154   -1.0633629884
N       -0.1202737140    1.1472032840    0.9345736735
N       -1.6267398883    0.4240234922   -0.6301465169
S       -2.4816448531    0.3597636240    1.9299201715
H       -2.9020149179   -1.7515157872   -2.6679766739
H       -1.8763041430   -0.2305367326   -3.0725635849
H       -0.3555976940    2.2444350291    2.7027629284
H        1.3228608215    2.0298737585    2.1399275195
H        0.4457215431    0.6820248234    2.9278294420
H        0.5943988855    0.9270572328    0.2504146899
H       -0.9899487974    0.8786468667   -1.2883980477
14   
Generated by ForceBalance from scan.xyz: Frame 10 of 24
C       -2.4214502285   -0.8473239540   -2.3388372108
C       -1.3099761130    0.5548460586    0.7222633154
C        0.3220425169    1.5849600994    2.2745776602
N       -2.3385191596   -0.6654740189   -1.0744601423
N       -0.1024008931    1.1665993250    0.9436040948
N       -1.5131931570    0.3185750793   -0.6359167370
S       -2.4412983348    0.2653192246    1.9007009173
H       -3.0813559401   -1.6369401718   -2.6863524511
H       -1.8714151614   -0.2565856504   -3.0831251058
H       -0.4211534637    2.2609412451    2.7017235348
H        1.2754857796    2.1100010308    2.1769931827
H        0.4352997249    0.7319953356    2.9529066426
H        0.6393549958    0.9652978965    0.2827881618
H       -0.8978469375    0.7809255599   -1.3076488931
14   
Generated by ForceBalance from scan.xyz: Frame 11 of 24
C       -2.4717830576   -0.8081527590   -2.3534716907
C       -1.2786804847    0.5103466863    0.7117445996
C        0.2796798872    1.6242031301    2.2807605484
N       -2.3525997763   -0.6709560598   -1.0865490639
N       -0.1028761364    1.1808176019    0.9448303355
N       -1.4082922253    0.1910085972   -0.6367413112
S       -2.4218272142    0.1968094990    1.8723165933
H       -3.2191091747   -1.5120417313   -2.7081457803
H       -1.8700382164   -0.2627352322   -3.0925536376
H       -0.4934207694    2.2790807130    2.6866374394
H        1.2165722767    2.1804809830    2.1966469911
H        0.4079621659    0.7818074069    2.9697769588
H        0.6627804498    0.9831341406    0.3102970577
H       -0.8430345563    0.7050143995   -1.3147515491
14   
Generated by ForceBalance from scan.xyz: Frame 12 of 24
C       -2.4951530962   -0.7702144512   -2.3638629648
C       -1.2635259720    0.4772135755    0.7088083234
C        0.2553526415    1.6448524581    2.2770095354
N       -2.3925001031   -0.6379472897   -1.0955663246
N       -0.1191400475    1.2010855784    0.9385993822
N       -1.3432921973    0.0840063143   -0.6256517669
S       -2.3961987699    0.1326702250    1.8707698195
H       -3.3251128477   -1.3633408935   -2.7371895753
H       -1.8009796918   -0.3242063428   -3.0887023403
H       -0.5416992329    2.2602342223    2.6973394621
H        1.1660535159    2.2427815839    2.1911430899
H        0.4268824979    0.8005009495    2.9544042135
H        0.6514342969    1.0483606458    0.2973145996
H       -0.7625473855    0.5840381078   -1.3019499426
14   
Generated by ForceBalance from scan.xyz: Frame 13 of 24
C       -2.5448303544   -0.2989953398   -2.6545715304
C       -1.0547488706    1.2522484005    0.1618454887
C        0.1562903314    1.4261648398    2.3145315661
N       -1.9799668375    0.6201359433   -1.9658087757
N       -0.4657390707    0.6507535425    1.2470560469
N       -1.5659947344    0.3003499377   -0.7154145797
S       -1.2028835155    2.8932276692   -0.0313497420
H       -2.8615833344   -0.0449458125   -3.6620068600
H       -2.7254558003   -1.3186223572   -2.2892748052
H        1.0026915594    2.0186495334    1.9493019353
H        0.4963563629    0.7289738831    3.0843152672
H       -0.5755228244    2.1112445226    2.7462745337
H       -0.0850529788   -0.2769519533    1.0974149674
H       -1.7296034091   -0.6453423002   -0.3656912214
14   
Generated by ForceBalance from scan.xyz: Frame 14 of 24
C       -2.4974793900   -0.3282497843   -2.6620814887
C       -1.1184996228    1.2743902033    0.1845247819
C        0.1871981100    1.4167971422    2.2843752559
N       -1.9884784167    0.6098549127   -1.9553392416
N       -0.4753520842    0.6591974876    1.2289239558
N       -1.7275533827    0.3405231928   -0.6512247217
S       -1.2724505050    2.9177594418    0.0178604011
H       -2.7023828523   -0.1091714429   -3.7059910627
H       -2.7370305576   -1.3284250118   -2.2777427631
H        1.0257671533    2.0069795506    1.8981718164
H        0.5469236545    0.7089467614    3.0352800595
H       -0.5254134667    2.1028020857    2.7459895454
H       -0.1102329455   -0.2702252299    1.0543428119
H       -1.8172300666   -0.6210360946   -0.3177324867
14   
Generated by ForceBalance from scan.xyz: Frame 15 of 24
C       -2.4250703072   -0.3522875596   -2.6583961836
C       -1.1719418748    1.3054528509    0.2081697332
C        0.2234782894    1.3910264022    2.2530405161
N       -1.9546765691    0.6020352588   -1.9472501785
N       -0.4799182997    0.6655475269    1.2017494521
N       -1.8618179597    0.3958587237   -0.6031155049
S       -1.3365957482    2.9510652812    0.0925060717
H       -2.5048126349   -0.1845042128   -3.7286521099
H       -2.7508481999   -1.3188526127   -2.2523406742
H        1.0460402840    1.9924689405    1.8505565281
H        0.6124507640    0.6624075282    2.9685402986
H       -0.4706818062    2.0637087062    2.7606789644
H       -0.1399436729   -0.2668671997    0.9959592797
H       -1.9292647540   -0.5664620124   -0.2641942367
14   
Generated by ForceBalance from scan.xyz: Frame 16 of 24
C       -2.2767058196   -0.2180077581   -2.6980716261
C       -1.2473012517    1.0836453374    0.3420034014
C        0.3132035041    1.4982035305    2.2124996205
N       -1.4317404286    0.2312327697   -1.8524733448
N       -0.3282376026    0.6490667379    1.2215565631
N       -1.6813841182   -0.0159674027   -0.5078578081
S       -1.8187461905    2.6337618036    0.2315934092
H       -2.0543014050   -0.0810555916   -3.7532565120
H       -3.2051277469   -0.7328993022   -2.4191671367
H        0.8755953992    2.3005216157    1.7240557767
H        0.9886080798    0.8848733167    2.8120344916
H       -0.4397179612    1.9593482072    2.8584297041
H       -0.0334491300   -0.3141002634    1.1103209383
H       -2.6729299982   -0.2006396345   -0.3213023147
14   
Generated by ForceBalance from scan.xyz: Frame 17 of 24
C       -1.9025849673   -0.4368123138   -2.5403283546
C       -1.3300213484    0.8872441143    0.5859560675
C        0.3446613411    1.3667444330    2.3354710577
N       -1.1855543975   -0.0753179317   -1.5474024868
N       -0.3613067624    0.4827179053    1.4220022701
N       -1.7453660996   -0.2072156112   -0.2762285472
S       -1.9329071216    2.4267138886    0.4712329070
H       -1.4533769416   -0.3851041431   -3.5289190456
H       -2.9358159665   -0.7946023564   -2.4496632738
H        0.8628176744    2.1559224975    1.7809348110
H        1.0675019939    0.7769907161    2.9022984615
H       -0.3617927956    1.8432545576    3.0212240918
H       -0.0759153832   -0.4853985837    1.3307988470
H       -2.7698005260   -0.2064699532   -0.3152721629
14   
Generated by ForceBalance from scan.xyz: Frame 18 of 24
C       -1.7954007692   -0.4686202331   -2.4861363964
C       -1.4390982274    0.8793544663    0.6653177741
C        0.3794791821    1.3453624648    2.2671570905
N       -1.1640764525   -0.1522267283   -1.4214712939
N       -0.3956400678    0.4693448775    1.4031870537
N       -1.8857603244   -0.1619301623   -0.2282835975
S       -2.0903333474    2.4060574062    0.6681973013
H       -1.2290103386   -0.5020763536   -3.4132913628
H       -2.8659068375   -0.7056184392   -2.5138607308
H        0.8214431240    2.1632982989    1.6886250587
H        1.1693061182    0.7579901132    2.7391880281
H       -0.2631111172    1.7825519813    3.0364958966
H       -0.0900026358   -0.4847563745    1.2513314478
H       -2.8895272403   -0.0362071159   -0.3877806728
14   
Generated by ForceBalance from scan.xyz: Frame 19 of 24
C       -1.7239435912   -0.5318052105   -2.4467891283
C       -1.5068196963    0.8885060110    0.7047567380
C        0.4019570970    1.3276092908    2.2037885204
N       -1.1620494823   -0.2252740462   -1.3402731579
N       -0.4091212699    0.4679090616    1.3556879622
N       -1.9840740872   -0.0838486090   -0.2285573302
S       -2.2058179195    2.3904268723    0.8509698089
H       -1.0813318761   -0.6718448496   -3.3119784259
H       -2.8064408737   -0.6567621092   -2.5677538469
H        0.7839096736    2.1841734213    1.6379137675
H        1.2362147766    0.7411243691    2.5935067430
H       -0.1962924190    1.7089873717    3.0353241241
H       -0.0502391277   -0.4412198714    1.0876076825
H       -2.9508370154    0.1452115241   -0.4728598352
14   
Generated by ForceBalance from scan.xyz: Frame 20 of 24
C       -1.6731944162   -0.6151168582   -2.4294101883
C       -1.5696067167    0.9082702480    0.7034529834
C        0.3755803541    1.3216237274    2.1597708209
N       -1.1763019599   -0.2965996021   -1.2947678677
N       -0.4303961697    0.4858609468    1.2820764410
N       -2.0598506143    0.0084280486   -0.2756062297
S       -2.3231355132    2.3668606467    0.9889264221
H       -0.9795717740   -0.8749209843   -3.2243890700
H       -2.7487329789   -0.6351847000   -2.6391848254
H        0.7227622711    2.2214687156    1.6396519394
H        1.2335722783    0.7372151375    2.4981390779
H       -0.2143431597    1.6344508438    3.0242797503
H       -0.0071589023   -0.3415224219    0.8759177421
H       -2.9831090230    0.3132743662   -0.5912719627
14   
Generated by ForceBalance from scan.xyz: Frame 21 of 24
C       -1.6715243918   -0.6766113003   -2.3841254908
C       -1.5777153646    0.9523871524    0.7187399385
C        0.3889426925    1.2998378966    2.1614852273
N       -1.2055792066   -0.3370840662   -1.2416308820
N       -0.4043710914    0.5227917810    1.2203043292
N       -2.0925076139    0.1320730011   -0.3015145875
S       -2.3727951921    2.3523741617    1.1600920460
H       -0.9687677894   -1.0613493799   -3.1177892474
H       -2.7295983301   -0.5959510304   -2.6569902979
H        0.6766636624    2.2669434829    1.7343828934
H        1.2842389969    0.7259032912    2.4092157621
H       -0.1846496412    1.4872905778    3.0720316879
H        0.0411474541   -0.2354638944    0.7141405437
H       -2.9795259549    0.4963951410   -0.6535160263
14   
Generated by ForceBalance from scan.xyz: Frame 22 of 24
C       -1.6727297882   -0.7569366805   -2.3645738930
C       -1.5726626397    0.9922566494    0.6924909231
C        0.3877462868    1.2829332686    2.1573175457
N       -1.2231266630   -0.3745240110   -1.2280657312
N       -0.3697884590    0.5786751053    1.1333770002
N       -2.0885311292    0.2398788975   -0.3668757576
S       -2.4325032649    2.3010144012    1.2783787956
H       -0.9798099248   -1.2552128500   -3.0363227287
H       -2.7081540672   -0.6060919562   -2.6886831741
H        0.6337405284    2.3017331029    1.8388852224
H        1.3077187921    0.7251511878    2.3444295798
H       -0.1920290621    1.3460397849    3.0811726279
H        0.0906782202   -0.1295993262    0.5711838376
H       -2.9600775465    0.6231845797   -0.7349245684
14   
Generated by ForceBalance from scan.xyz: Frame 23 of 24
C       -1.7005797387   -0.8388082525   -2.3545929109
C       -1.5979972691    1.0339257027    0.6466927863
C        0.3293261568    1.2645378113    2.1676266439
N       -1.2557243419   -0.3959622784   -1.2371881712
N       -0.3719591007    0.6513374046    1.0497812744
N       -2.0857848276    0.3498778833   -0.4608702560
S       -2.5328034576    2.2277456915    1.3564207771
H       -1.0291266600   -1.4428403237   -2.9575210131
H       -2.7120278122   -0.6407287816   -2.7250912767
H        0.5074938401    2.3289876446    1.9842577592
H        1.2848307280    0.7507116169    2.2922544951
H       -0.2558920793    1.1711140462    3.0862322427
H        0.1014690759   -0.0310116667    0.4672387954
H       -2.9716563891    0.6987529497   -0.8259314393
14   
Generated by ForceBalance from scan.xyz: Frame 24 of 24
C       -1.7364481866   -0.8752900377   -2.2876712401
C       -1.5098831443    1.1137529051    0.6405262497
C        0.4009610431    1.2320389192    2.1942902219
N       -1.2404691004   -0.3666493651   -1.2200519012
N       -0.2722068866    0.7298609054    1.0060907226
N       -1.9835282252    0.5248361875   -0.5213968969
S       -2.4753959448    2.2092791287    1.4610478755
H       -1.1262510075   -1.5880407985   -2.8340409627
H       -2.7327810017   -0.6281404757   -2.6691338253
H        0.5173648698    2.3186911249    2.1456893256
H        1.3854812570    0.7629302662    2.2504046167
H       -0.1693903885    0.9911718577    3.0962389586
H        0.1892610907    0.0552559797    0.4055102243
H       -2.9187767528    0.8022454820   -0.8166673968
