25   

C        0.0068803347   -0.0810819648    1.3459008688
C        1.6315915788   -0.6648274863    2.9781618795
C       -0.8535718991   -1.0031496826    1.9414223586
C        1.2903646388    0.0991544980    1.8649608425
C        0.7114609158   -1.5718246791    3.5098646172
C        2.3068155728    1.0640187604    1.3402247223
C        2.8336459489    4.1089757377    0.8928315345
C        2.3050045320   -2.4958918830    5.2195317798
C        2.6594766766    2.9351757255   -0.0658273608
N       -0.5059795642   -1.7384553977    3.0068043987
N        0.9822360946   -2.3719280386    4.5945043736
O        3.4815459089    1.0179538784    1.6971550611
O        1.7633965729    1.9602501259    0.4871598488
H       -0.3312174121    0.4860001393    0.4874229135
H        2.6076864000   -0.5615602097    3.4313667576
H       -1.8459644852   -1.1317049551    1.5250635548
H        1.8632492188    4.5666934933    1.1069457342
H        3.2856277947    3.7729916082    1.8309996282
H        3.4869403435    4.8621234039    0.4427674862
H        3.0576326148   -2.7700251477    4.4726688324
H        2.2829549255   -3.2792423250    5.9837903952
H        2.5914539265   -1.5549727607    5.7006516359
H        3.6356504814    2.4913430473   -0.2915583287
H        2.2423413047    3.3015892737   -1.0090685249
H        0.2079576839   -2.9812745310    4.8332252578
25   

C       -0.0024658297   -0.1855624020    1.2506520476
C        1.6132868913   -0.6612449422    2.9260970329
C       -0.8582974999   -1.0839517745    1.8878658297
C        1.2749854004    0.0322566773    1.7672048216
C        0.6986059948   -1.5484912380    3.4987577201
C        2.2751099011    0.9929847864    1.2060392413
C        2.9399152786    4.0421274388    1.0446188284
C        2.2868281336   -2.3591709778    5.2692586018
C        2.5523383651    3.0061494737   -0.0058419653
N       -0.5119845009   -1.7569808773    2.9943522198
N        0.9676015079   -2.2826221620    4.6294308719
O        3.4802312034    0.8495040360    1.3947143822
O        1.6782889778    2.0174135929    0.5575825281
H       -0.3372310189    0.3365516117    0.3628707305
H        2.5846056940   -0.5170503929    3.3784085933
H       -1.8460848945   -1.2447338674    1.4717607100
H        2.0430503207    4.5190938246    1.4509955541
H        3.4953666436    3.5702026045    1.8607345712
H        3.5734861775    4.8104845208    0.5920580181
H        3.0481918526   -2.6626606832    4.5428805582
H        2.2675928765   -3.1024402000    6.0726286579
H        2.5590274025   -1.3915323960    5.7033338458
H        3.4543457778    2.5440477205   -0.4226654434
H        2.0328631386    3.5071432691   -0.8287203579
H        0.1986078872   -2.8882616987    4.8934231177
25   

C       -0.0021574309   -0.2886243801    1.1555713293
C        1.6014939278   -0.6426243889    2.8713682775
C       -0.8464501280   -1.1728793291    1.8272961089
C        1.2641710229   -0.0203196030    1.6729261234
C        0.6994938375   -1.5202531054    3.4779181401
C        2.2388730825    0.9462395074    1.0763455470
C        3.0669145992    3.9589602560    1.1817644813
C        2.2831567267   -2.2060962790    5.3040831468
C        2.4691805748    3.0817327417    0.0863135606
N       -0.4994290552   -1.7818366435    2.9702525450
N        0.9696524649   -2.1883038728    4.6485063194
O        3.4468735929    0.7278404363    1.0820503602
O        1.6224066748    2.0714178149    0.6528364361
H       -0.3360476490    0.1858789971    0.2412526700
H        2.5641438637   -0.4500674733    3.3239281053
H       -1.8257676510   -1.3751242511    1.4092655283
H        2.2688942775    4.4218880183    1.7698589327
H        3.7012957093    3.3634983855    1.8452632619
H        3.6775525824    4.7480525975    0.7333696165
H        3.0586913701   -2.5265617260    4.6003433243
H        2.2710103562   -2.9113187008    6.1411922503
H        2.5298112452   -1.2135218916    5.6949407121
H        3.2718566089    2.6343154452   -0.5107222762
H        1.8715169682    3.7052996463   -0.5859655496
H        0.2112010533   -2.7980135634    4.9329655375
25   

C       -0.0108765953   -0.4012210646    1.0665662833
C        1.5751150576   -0.6201675352    2.8195098734
C       -0.8342052527   -1.2852232726    1.7643779308
C        1.2360438471   -0.0650175702    1.5894988981
C        0.6954026808   -1.5024030393    3.4516321626
C        2.1794534535    0.9113924770    0.9554244961
C        3.2269090524    3.8390057994    1.2785003442
C        2.2733126838   -2.0506828123    5.3287292687
C        2.4096026400    3.1389521414    0.1974171591
N       -0.4847647455   -1.8299564538    2.9385771959
N        0.9702887853   -2.1075721344    4.6548508471
O        3.3555588392    0.6294488843    0.7488127556
O        1.5883533516    2.1112718599    0.7700226404
H       -0.3455951802    0.0202953871    0.1270936526
H        2.5231796523   -0.3721135462    3.2752119795
H       -1.7984977848   -1.5414218154    1.3410376909
H        2.5618646254    4.2652767834    2.0354719597
H        3.9103512324    3.1325184978    1.7591346673
H        3.8172717020    4.6453120457    0.8335867717
H        3.0707692144   -2.3701773049    4.6494772747
H        2.2739132000   -2.7219658630    6.1933860250
H        2.4775439051   -1.0348583183    5.6825474773
H        3.0789784586    2.7286253659   -0.5671039532
H        1.7631467962    3.8724660870   -0.2945862403
H        0.2299922221   -2.7324865914    4.9539138255
25   

C       -0.0356938668   -0.5032009961    0.9955174644
C        1.5073228748   -0.5633423129    2.7973350023
C       -0.8241106903   -1.4123554169    1.7013169322
C        1.1693194218   -0.0679607045    1.5422480382
C        0.6649951725   -1.4768931547    3.4361058397
C        2.0741851249    0.9292091628    0.8797495816
C        3.3788902589    3.7274221336    1.3408461518
C        2.2236985388   -1.8757485244    5.3663332699
C        2.3405055914    3.2165352960    0.3469475412
N       -0.4778139593   -1.8933544750    2.9038162915
N        0.9426224265   -2.0258333501    4.6653640778
O        3.1685431047    0.6076392903    0.4290687996
O        1.5506166020    2.1719013569    0.9327287296
H       -0.3643227476   -0.1413054365    0.0295008604
H        2.4256171369   -0.2441969662    3.2687631373
H       -1.7565208751   -1.7442418843    1.2595222966
H        2.8849391486    4.0903912061    2.2470820771
H        4.0774149421    2.9289803070    1.6087989572
H        3.9460454577    4.5497560961    0.8950805415
H        3.0545072889   -2.1631924539    4.7132372846
H        2.2434431942   -2.5255035789    6.2470685381
H        2.3591467524   -0.8415432412    5.6992603388
H        2.8385913060    2.8697691104   -0.5655018334
H        1.6787583560    4.0412736641    0.0642387763
H        0.2336721854   -2.6863597745    4.9640316895
25   

C       -0.0350450407   -0.6214214127    0.9241987628
C        1.4465039748   -0.5115178132    2.7729245118
C       -0.7698953679   -1.5754853399    1.6283453609
C        1.1049630317   -0.0657313930    1.5003941698
C        0.6611542595   -1.4765357874    3.4088659637
C        1.9627876354    0.9576757738    0.8134414703
C        3.5371200371    3.5983220036    1.3240245891
C        2.1919557234   -1.7150847106    5.3875783183
C        2.2984089751    3.2756364239    0.4941290193
N       -0.4269578692   -1.9963438564    2.8539832581
N        0.9459304407   -1.9770110520    4.6570299005
O        2.9035927675    0.6344003492    0.0965405427
O        1.5505995361    2.2105863176    1.0979212205
H       -0.3526545184   -0.3205580615   -0.0661849790
H        2.3223346211   -0.1116955364    3.2627780553
H       -1.6539527588   -1.9970874599    1.1642115196
H        3.2462137073    3.8705998152    2.3429880950
H        4.2081021606    2.7347832303    1.3614497941
H        4.0761957888    4.4377803240    0.8753577536
H        3.0600258743   -1.9451463874    4.7607414271
H        2.2397522540   -2.3483474365    6.2791913195
H        2.2360801927   -0.6685986552    5.7064260933
H        2.5930455505    3.0201969224   -0.5299692275
H        1.6622881664    4.1646209607    0.4385937211
H        0.2837518408   -2.6871739715    4.9492756966
25   

C       -0.0277069429   -0.7187294872    0.8644961350
C        1.3754249784   -0.4491834931    2.7559473177
C       -0.6980839554   -1.7240515977    1.5612431046
C        1.0313365455   -0.0455824336    1.4697048514
C        0.6585231600   -1.4712849097    3.3836937231
C        1.8358574251    1.0114430516    0.7719612644
C        3.6636304732    3.4768746862    1.2804858745
C        2.1440301554   -1.5498633177    5.4095515204
C        2.2765734735    3.3321219097    0.6618514257
N       -0.3613863050   -2.0930082176    2.8050979689
N        0.9493016876   -1.9303832561    4.6462899652
O        2.5741001642    0.7392423754   -0.1686604193
O        1.5694971188    2.2396673084    1.2656115009
H       -0.3291969335   -0.4701629754   -0.1454340125
H        2.1987158504    0.0306110974    3.2646742515
H       -1.5219942628   -2.2331021354    1.0746529565
H        3.5791403521    3.6306266979    2.3604482048
H        4.2619959613    2.5803347580    1.0918411624
H        4.1782497853    4.3366102613    0.8416337584
H        3.0479778166   -1.7095388703    4.8122544013
H        2.2201215033   -2.1656048756    6.3114177695
H        2.0855137291   -0.4998112905    5.7140203234
H        2.3646623934    3.1958454134   -0.4218608375
H        1.7105531139    4.2537309369    0.8299848198
H        0.3430650230   -2.6922426106    4.9297276998
25   

C       -0.0086039283   -0.7793791923    0.8176301214
C        1.3109634356   -0.3814774233    2.7450938763
C       -0.6141700790   -1.8317469027    1.5037180274
C        0.9698053838   -0.0121552857    1.4471367435
C        0.6627042411   -1.4550453967    3.3615680678
C        1.7132082991    1.0875839118    0.7530705716
C        3.7586082634    3.3800027579    1.2212347878
C        2.0880059604   -1.3943871028    5.4311553213
C        2.2811258645    3.3824325444    0.8405216183
N       -0.2854764129   -2.1625301326    2.7602713343
N        0.9554113400   -1.8820968751    4.6349146285
O        2.2447581085    0.9101320664   -0.3381048394
O        1.6120859241    2.2560960688    1.4249874581
H       -0.2952027622   -0.5667086880   -0.2050205245
H        2.0782801109    0.1663194302    3.2725205711
H       -1.3769188401   -2.4118759009    0.9973584372
H        3.8661703905    3.3978174356    2.3099136221
H        4.2537048291    2.4873173391    0.8269287972
H        4.2513314583    4.2631544338    0.8043232775
H        3.0214125566   -1.4837631034    4.8653602859
H        2.1853589061   -1.9920334821    6.3430939639
H        1.9317158438   -0.3498363451    5.7196448171
H        2.1775474639    3.3824146833   -0.2503457352
H        1.8158672633    4.3006294551    1.2125994212
H        0.4052320446   -2.6887372716    4.9086561174
25   

C        0.0460176527   -0.8233057242    0.7748349988
C        1.2668838117   -0.3354897300    2.7450069431
C       -0.5027222256   -1.9199051755    1.4385713278
C        0.9446829862    0.0132579000    1.4358329513
C        0.6795991757   -1.4563599248    3.3381340681
C        1.6187093045    1.1674762983    0.7636076975
C        3.8305562331    3.3160052779    1.1465346789
C        2.0219021241   -1.2943029949    5.4574006565
C        2.3131557605    3.4149347449    1.0209281680
N       -0.1925136435   -2.2301989691    2.7047363601
N        0.9601849100   -1.8654841675    4.6200812201
O        1.9595848427    1.1094872856   -0.4137392835
O        1.6882116498    2.2482142631    1.5742785240
H       -0.2229521185   -0.6282784337   -0.2563445997
H        1.9732483897    0.2634641527    3.3013938573
H       -1.2035793805   -2.5524610337    0.9062040318
H        4.1138353944    3.1958795417    2.1964896647
H        4.2069320453    2.4625367145    0.5743026457
H        4.2958794060    4.2266569523    0.7582974980
H        2.9803656845   -1.3145166658    4.9279830582
H        2.1281394884   -1.8823312111    6.3745796013
H        1.7775770563   -0.2640170370    5.7359039515
H        2.0345520226    3.5527574789   -0.0298391607
H        1.9639908380    4.2954426800    1.5693466308
H        0.4610906484   -2.7105695539    4.8750639041
25   

C        0.0996739803   -0.8761713006    0.7511833497
C        1.2213561849   -0.3218557174    2.7609736049
C       -0.3999544339   -2.0086551854    1.3924178650
C        0.9256943321    0.0121473110    1.4410200236
C        0.6867554761   -1.4808247820    3.3307469189
C        1.5266111330    1.2178166999    0.7911165458
C        3.8713518813    3.2486367479    1.0126193200
C        1.9345337856   -1.2390339914    5.5002679194
C        2.3601009150    3.4029720989    1.1550618264
N       -0.1120562768   -2.3057488571    2.6665213811
N        0.9475298329   -1.8771955143    4.6209402962
O        1.6811401552    1.2744422812   -0.4252513004
O        1.7815435498    2.2016743472    1.6846133256
H       -0.1533628238   -0.6918550998   -0.2861736598
H        1.8679910800    0.3132864690    3.3488678103
H       -1.0432730477   -2.6801135006    0.8356105614
H        4.3178615355    3.0083535980    1.9821308916
H        4.1091620391    2.4514066860    0.3017194569
H        4.3074238174    4.1823345976    0.6457512456
H        2.9134568024   -1.1974595502    5.0110843771
H        2.0399615619   -1.8191547403    6.4225591916
H        1.6131618055   -0.2266541915    5.7659260309
H        1.9190576778    3.6608067436    0.1856507494
H        2.1465156923    4.2289924204    1.8406471179
H        0.4929403098   -2.7523124705    4.8571036219
25   

C        0.1840438445   -0.9004589701    0.7300060834
C        1.1930840094   -0.3049847980    2.7862085373
C       -0.2740475229   -2.0666858658    1.3404058709
C        0.9360440605    0.0249057155    1.4567222080
C        0.7042531281   -1.4993529398    3.3237161866
C        1.4674248711    1.2804174288    0.8405157902
C        3.9019915691    3.2224379036    0.8634509771
C        1.8449793617   -1.2102393451    5.5461853585
C        2.4412600174    3.3950783689    1.2686289868
N       -0.0180670762   -2.3618533177    2.6212918346
N        0.9331526198   -1.8934629215    4.6207089819
O        1.4447072531    1.4499732533   -0.3752262020
O        1.9096351660    2.1599118889    1.7689637425
H       -0.0468803069   -0.7177244849   -0.3128778530
H        1.7742425652    0.3554338002    3.4130211662
H       -0.8584301919   -2.7657726614    0.7534384411
H        4.4907569488    2.8753023960    1.7177880428
H        3.9899737903    2.4962298807    0.0496032378
H        4.3081205620    4.1786192897    0.5209141334
H        2.8398598127   -1.1098109139    5.0995996234
H        1.9433487584   -1.7925683154    6.4678600701
H        1.4568186302   -0.2198230751    5.8053716372
H        1.8587476102    3.7596020754    0.4150484808
H        2.3742812905    4.1522213869    2.0561508999
H        0.5191831957   -2.7950501472    4.8305062009
25   

C       -0.2165355218   -0.1450524210    1.1671078170
C        1.6037171909   -0.9779460576    2.4288019946
C       -1.0725457416   -0.6644296225    2.1364777151
C        1.1663382290   -0.2939569980    1.2958189243
C        0.6809504580   -1.4630803229    3.3603947120
C        2.1228154593    0.2448069853    0.2788622929
C        4.7248570383    1.9348507093   -0.0428114601
C        2.4251309795   -2.2690240977    4.9830514839
C        4.4007575140    0.4708908742   -0.3241103636
N       -0.6293717607   -1.3147500647    3.2197487621
N        1.0438404608   -2.1312370104    4.5057535598
O        1.7210500499    0.8448500339   -0.7141556939
O        3.4125524201   -0.0123886527    0.5971802610
H       -0.6329992883    0.3739709170    0.3117972799
H        2.6571957830   -1.1409014658    2.6026438925
H       -2.1411791268   -0.5352738311    2.0095908048
H        3.8371901068    2.5579823314   -0.1882735931
H        5.0786442908    2.0507689789    0.9859766388
H        5.5068884743    2.2799065253   -0.7254104712
H        2.9026951726   -1.2867446595    5.0628277364
H        3.0034617762   -2.9048172615    4.3047657526
H        2.4305744067   -2.7313493439    5.9752655049
H        5.3107931345   -0.1263544566   -0.2097903093
H        4.0639253650    0.3569646215   -1.3606515945
H        0.2438689097   -2.3944706964    5.0705496376
25   

C       -0.2422358625   -0.2203955258    1.1243833153
C        1.6037034535   -0.9329982818    2.4227966294
C       -1.0812660451   -0.7914958436    2.0795590720
C        1.1442244831   -0.2867055744    1.2766654845
C        0.6966879084   -1.4741057110    3.3387404321
C        2.0854181185    0.3288016418    0.2899209015
C        4.8122250561    1.8146569455    0.0504839297
C        2.4582191727   -2.1555860249    4.9990817640
C        4.3351832093    0.4497363910   -0.4364518604
N       -0.6176372841   -1.4113989169    3.1723055715
N        1.0801139286   -2.1100895580    4.4956311572
O        1.6814431491    1.0949064310   -0.5802370226
O        3.3595006478   -0.0920785284    0.4652459360
H       -0.6738258649    0.2762344378    0.2633294894
H        2.6627656192   -1.0195227928    2.6169428100
H       -2.1534812373   -0.7281615712    1.9342993394
H        3.9808823081    2.5259728466    0.0696008689
H        5.2328938481    1.7289977480    1.0568350373
H        5.5837591858    2.2003694657   -0.6222093254
H        2.8697058879   -1.1440359147    5.0812744614
H        3.0890241887   -2.7561539932    4.3356281860
H        2.4749520836   -2.6112589248    5.9942449248
H        5.1891853372   -0.2332112522   -0.4834229053
H        3.9308300460    0.5369321791   -1.4511891378
H        0.2883033074   -2.4214245281    5.0473126365
25   

C       -0.2565974385   -0.2887257825    1.0772263406
C        1.5968584167   -0.8835585500    2.4247445353
C       -1.0818249463   -0.9130461781    2.0113278325
C        1.1261735148   -0.2730978143    1.2641520783
C        0.7033468853   -1.4821346869    3.3174985890
C        2.0555403988    0.4204452873    0.3194364472
C        4.8863822986    1.6903011594    0.1066712715
C        2.4622124053   -2.0450779805    5.0239055830
C        4.2563362549    0.4658154761   -0.5503334639
N       -0.6076449848   -1.5042469363    3.1159270571
N        1.0970248176   -2.0891723402    4.4863601140
O        1.6649786820    1.3332109671   -0.4023310775
O        3.2908826578   -0.1320214487    0.3264492013
H       -0.6947607984    0.1875264412    0.2081434713
H        2.6553794654   -0.8941105104    2.6405727075
H       -2.1520945317   -0.9152593979    1.8402498455
H        4.1272449979    2.4548823049    0.2980736844
H        5.3571509774    1.4087179295    1.0533225965
H        5.6485012003    2.1152828407   -0.5529555062
H        2.8061596272   -1.0090882962    5.1119054385
H        3.1463652909   -2.6059078379    4.3787920079
H        2.4831983809   -2.4959621309    6.0211713017
H        5.0387785507   -0.2684561893   -0.7661674236
H        3.8013406530    0.7487406783   -1.5062037342
H        0.3132095294   -2.4496941098    5.0191930622
25   

C       -0.2467571450   -0.3616858274    1.0403241306
C        1.5955274571   -0.8465957482    2.4477772817
C       -1.0606360499   -1.0444662256    1.9434214661
C        1.1245164764   -0.2642390156    1.2737204557
C        0.7133950125   -1.5072008853    3.3071559772
C        2.0434978861    0.5074387316    0.3801788917
C        4.9563320220    1.5598117641    0.1289554558
C        2.4444126107   -1.9547943809    5.0742921113
C        4.1695988178    0.5163248087   -0.6586039800
N       -0.5860544930   -1.6126765314    3.0603713338
N        1.1063902504   -2.0932364489    4.4868252178
O        1.6822487835    1.5477843200   -0.1610090815
O        3.2170185075   -0.1383438967    0.1910952182
H       -0.6842384469    0.0974888152    0.1619842586
H        2.6460244388   -0.7859349759    2.6928081907
H       -2.1226519656   -1.1121868951    1.7378030266
H        4.2875068226    2.3408571351    0.5033314632
H        5.4643966719    1.0877717052    0.9752007605
H        5.7064489626    2.0253217204   -0.5169281638
H        2.7137684904   -0.8975842409    5.1696584898
H        3.1885819106   -2.4694711966    4.4577975381
H        2.4587708313   -2.4003727384    6.0740619572
H        4.8625965482   -0.2329172797   -1.0540328936
H        3.6766500305    0.9897387962   -1.5151132153
H        0.3297829738   -2.5049483997    4.9924488978
25   

C       -0.2263034742   -0.4371276766    1.0142892458
C        1.5843951871   -0.8080383827    2.4970110842
C       -1.0283563908   -1.1828075901    1.8777596585
C        1.1230993140   -0.2501357501    1.3081342066
C        0.7145782859   -1.5356805918    3.3135765911
C        2.0296696126    0.5950169907    0.4669097161
C        4.9956225318    1.4483950310    0.1025637966
C        2.3944688666   -1.8741775265    5.1525320862
C        4.0514175968    0.6176702152   -0.7613104051
N       -0.5629859572   -1.7279781595    3.0102805147
N        1.0973777632   -2.1042948250    4.5050493197
O        1.7184716078    1.7353829975    0.1391610053
O        3.1182500865   -0.0962882479    0.0616781194
H       -0.6566535210    0.0008428928    0.1220098786
H        2.6174548801   -0.6759086349    2.7840028354
H       -2.0737622757   -1.3208392722    1.6271422981
H        4.4363287926    2.2038117081    0.6629398868
H        5.5279614117    0.8016013603    0.8063974723
H        5.7279563211    1.9573681611   -0.5308252784
H        2.5843330300   -0.8010168613    5.2604114927
H        3.1999983249   -2.3331744421    4.5701374388
H        2.3950304825   -2.3210770312    6.1518174980
H        4.6358283791   -0.1048362949   -1.3396194589
H        3.5333145335    1.2662359554   -1.4766087327
H        0.3298982864   -2.5714486761    4.9752010928
25   

C       -0.1719767424   -0.4912873876    0.9950890823
C        1.5738987443   -0.7582040912    2.5761807842
C       -0.9692343113   -1.2985991269    1.8063566856
C        1.1409319227   -0.2152010615    1.3706004875
C        0.7103087882   -1.5513323849    3.3363600063
C        2.0469643606    0.6835808577    0.5815031330
C        5.0414053823    1.3253279713    0.0344901013
C        2.3014367551   -1.7958943549    5.2665002283
C        3.9361578191    0.7405536334   -0.8396120191
N       -0.5328162037   -1.8239380610    2.9597134277
N        1.0641609943   -2.1095885583    4.5416002406
O        1.8398861074    1.8893530307    0.4972628665
O        3.0159077256   -0.0191290977   -0.0433951811
H       -0.5786393575   -0.0778849006    0.0805594343
H        2.5788849058   -0.5626089595    2.9205069269
H       -1.9866044632   -1.5050757234    1.4948184876
H        4.6214961214    2.0203539618    0.7679933852
H        5.5678296850    0.5235720713    0.5609518951
H        5.7588221943    1.8684080834   -0.5875601875
H        2.4103961754   -0.7130772167    5.3890423311
H        3.1698912889   -2.1944398614    4.7320083180
H        2.2731443382   -2.2489359248    6.2626143480
H        4.3829139659    0.0791964579   -1.5886291690
H        3.4228684193    1.5448832330   -1.3784544644
H        0.3039307751   -2.6309115925    4.9641666207
25   

C       -0.0790564704   -0.5503169098    0.9641136477
C        1.5730880981   -0.7082871741    2.6583183946
C       -0.8699695888   -1.4172286151    1.7184250881
C        1.1784032318   -0.1785902047    1.4342456214
C        0.7183616106   -1.5652969288    3.3564815609
C        2.0927780181    0.7569022311    0.6967483108
C        5.0819674077    1.1859797857   -0.0732448794
C        2.1960779335   -1.7222171009    5.3831111968
C        3.8352676999    0.8762054286   -0.8960675550
N       -0.4761771547   -1.9183923152    2.8976958240
N        1.0324324790   -2.1123873555    4.5777655066
O        2.0508303927    1.9700487248    0.8701981223
O        2.9135645128    0.0826175792   -0.1352794962
H       -0.4475238845   -0.1692970257    0.0200214375
H        2.5393153061   -0.4500843332    3.0665223373
H       -1.8456146914   -1.6953705617    1.3370069457
H        4.8208155689    1.7792807736    0.8082937485
H        5.5598821131    0.2561256412    0.2492715584
H        5.7932758285    1.7564798829   -0.6775336508
H        2.2219179926   -0.6358253046    5.5190686673
H        3.1224717992   -2.0545457172    4.9034288103
H        2.1355162253   -2.1867467387    6.3724666910
H        4.1259013350    0.3167758914   -1.7908290272
H        3.3695013176    1.8097440013   -1.2313357229
H        0.2840802942   -2.6880681670    4.9476036866
25   

C       -0.1916876122    0.4776497354    1.9952031616
C        1.5950536691   -0.5203387440    3.1958135702
C       -0.9808968122   -0.6161658367    2.3511025796
C        1.1296548116    0.5444761474    2.4313202580
C        0.7421270532   -1.5840784294    3.5020306783
C        2.0642035502    1.6652146493    2.0816458433
C        2.5879706370    3.8704187272   -0.0467226126
C        2.5119693237   -2.9334696751    4.6712718942
C        3.3551895345    2.6098430484    0.3406598754
N       -0.5205165178   -1.6322346589    3.0943512418
N        1.1324114312   -2.6751360790    4.2414881743
O        2.4469762562    2.4727181885    2.9214852476
O        2.4514899346    1.5905213845    0.7904744583
H       -0.6101068983    1.2678447069    1.3847809110
H        2.6149117893   -0.5169050252    3.5525550128
H       -2.0089544115   -0.6484487420    2.0093743407
H        1.8570322613    3.6403732528   -0.8277008855
H        2.0660320043    4.2827885252    0.8221666873
H        3.2820794399    4.6261384121   -0.4257487995
H        3.1864684478   -2.9405899780    3.8085520808
H        2.5720122543   -3.9120117014    5.1582276217
H        2.8395582668   -2.1730330981    5.3876753074
H        4.0978491763    2.8479461330    1.1104035776
H        3.8987438806    2.2377222056   -0.5334525533
H        0.3886908523   -3.3544844624    4.3572790370
25   

C       -0.1111930553    0.4083997996    1.8778433840
C        1.6169818908   -0.5496494558    3.1933458803
C       -0.9240174522   -0.6627584840    2.2492682279
C        1.1903809309    0.4867981722    2.3689902084
C        0.7426907382   -1.5923740270    3.5105850766
C        2.1632637171    1.5647232543    1.9994691637
C        2.5815911845    3.9770381340    0.0847445870
C        2.4550552898   -2.9060299012    4.7990638286
C        3.2614317470    2.6150108884    0.1870972269
N       -0.5035435394   -1.6478841749    3.0554510048
N        1.0943891984   -2.6548388162    4.3087343815
O        2.7714242852    2.2049230094    2.8511756394
O        2.3353237666    1.6271883076    0.6609239646
H       -0.4944283156    1.1703748349    1.2109106896
H        2.6231140617   -0.5394606804    3.5878620541
H       -1.9368439299   -0.7040793056    1.8656115162
H        1.7171519498    3.9163646868   -0.5832359299
H        2.2488455970    4.3135683038    1.0714090715
H        3.2841734004    4.7140634206   -0.3149111708
H        3.1607947710   -2.9516203361    3.9628954334
H        2.4889537182   -3.8651968909    5.3254737674
H        2.7626637881   -2.1203965339    5.4969060552
H        4.1366832967    2.6840693104    0.8427445288
H        3.6184709213    2.3166164151   -0.8035976815
H        0.3413651528   -3.3241019120    4.4226877640
25   

C       -0.0554133974    0.3215691088    1.7613408139
C        1.6311893514   -0.5846201496    3.1663688020
C       -0.8890187778   -0.7197595284    2.1693978268
C        1.2362900203    0.4113282767    2.2778993148
C        0.7371651260   -1.5994208215    3.5170907912
C        2.2366573867    1.4520709803    1.8829800443
C        2.5848938693    4.0588589275    0.2269727008
C        2.4034685800   -2.8610469968    4.9131230947
C        3.1463934958    2.6503707546    0.0571417410
N       -0.4988868398   -1.6652718596    3.0360518090
N        1.0574943539   -2.6221775450    4.3778976589
O        3.0168975628    1.9369440618    2.6971431929
O        2.2153311514    1.6766181279    0.5502564483
H       -0.4149826346    1.0511111048    1.0464535757
H        2.6280926672   -0.5665122033    3.5840414382
H       -1.8931971166   -0.7705757438    1.7647241080
H        1.6291453100    4.1484061244   -0.2980375792
H        2.4336630398    4.2852346049    1.2868675513
H        3.2843495499    4.7903987075   -0.1879441261
H        3.1279687725   -2.9580101763    4.0976228159
H        2.4141319678   -3.7912677609    5.4900288094
H        2.7038219341   -2.0427179424    5.5756694678
H        4.1116910656    2.5700448868    0.5694527917
H        3.3244829600    2.4607063189   -1.0060104059
H        0.2945709347   -3.2769901241    4.5084204594
25   

C       -0.0131327230    0.2326634276    1.6523120604
C        1.6473094957   -0.6079978665    3.1289485267
C       -0.8614874984   -0.7766174755    2.1073989753
C        1.2752272714    0.3374285869    2.1769973632
C        0.7388004913   -1.5931722799    3.5240682153
C        2.2928626729    1.3492863493    1.7544323251
C        2.6183561703    4.1246357006    0.3855719681
C        2.3739515490   -2.7885809909    5.0121137769
C        3.0333384631    2.7164441567   -0.0299081834
N       -0.4912667420   -1.6754539283    3.0304739834
N        1.0371827862   -2.5675278006    4.4467660483
O        3.2076253656    1.6910241146    2.4992489404
O        2.1031844690    1.7486963904    0.4769495955
H       -0.3610632800    0.9256433700    0.8963125254
H        2.6375901853   -0.5785955805    3.5617671433
H       -1.8615387381   -0.8402600395    1.6944013206
H        1.6097259704    4.3421674060    0.0216687521
H        2.6344251070    4.2223908907    1.4753685822
H        3.3113947477    4.8567755466   -0.0389498250
H        3.1081068491   -2.9356604938    4.2128958916
H        2.3686468679   -3.6862546992    5.6385195663
H        2.6732712855   -1.9381198208    5.6333867321
H        4.0505192622    2.5092627447    0.3210333128
H        3.0463503824    2.6538567323   -1.1225592403
H        0.2666840487   -3.2077186727    4.6026592605
25   

C        0.0079498189    0.1322046430    1.5457535817
C        1.6517749399   -0.6378501857    3.0786437968
C       -0.8513052423   -0.8437445068    2.0501066419
C        1.2967201392    0.2531015914    2.0689075051
C        0.7322684881   -1.5920600557    3.5215159134
C        2.3240808932    1.2414399867    1.6137058883
C        2.6697279827    4.1512835398    0.5571097346
C        2.3446274170   -2.7108654693    5.0920690648
C        2.9106865198    2.7865933317   -0.0810913117
N       -0.4945380247   -1.6929836913    3.0237365772
N        1.0148356946   -2.5135135333    4.5018488001
O        3.3513451476    1.4436901294    2.2565442654
O        1.9878642539    1.8184027493    0.4385311760
H       -0.3350653911    0.7865095928    0.7538592313
H        2.6373281426   -0.5952203199    3.5210118150
H       -1.8497049114   -0.9213358854    1.6354958751
H        1.6402481281    4.4745281579    0.3761512764
H        2.8459028808    4.1055784290    1.6361428036
H        3.3517694098    4.8892378241    0.1249137270
H        3.0850372942   -2.9097304063    4.3100065191
H        2.3265286228   -3.5701845807    5.7699061197
H        2.6448392116   -1.8276938243    5.6654404444
H        3.9476341195    2.4748136043    0.0871466991
H        2.7657419624    2.8659672163   -1.1630583076
H        0.2382431976   -3.1383626010    4.6869145832
25   

C        0.0014647713    0.0232529437    1.4471722582
C        1.6331767285   -0.6590573192    3.0337092134
C       -0.8620721859   -0.9224979006    1.9993761603
C        1.2886617472    0.1698137672    1.9688291751
C        0.7095277311   -1.5862156704    3.5229891823
C        2.3164778368    1.1413422201    1.4788156812
C        2.7401600753    4.1390549933    0.7286298864
C        2.3081456378   -2.6137529948    5.1680697201
C        2.7782792705    2.8526384211   -0.0906054386
N       -0.5130961842   -1.7157041333    3.0217503635
N        0.9826265955   -2.4480324289    4.5587150278
O        3.4312454102    1.2111947286    1.9909388885
O        1.8634430729    1.8860432065    0.4460764992
H       -0.3383535439    0.6338909663    0.6198219548
H        2.6136319706   -0.5916102283    3.4841739553
H       -1.8578818293   -1.0221891277    1.5832609559
H        1.7247786855    4.5463129639    0.7420795681
H        3.0625321964    3.9477227433    1.7566642553
H        3.4115372096    4.8809485697    0.2865761457
H        3.0537019246   -2.8562321772    4.4033848844
H        2.2842892587   -3.4341821601    5.8923204399
H        2.6055666158   -1.7004756090    5.6937471446
H        3.8002506298    2.4580222460   -0.1163859366
H        2.4892494729    3.0759387766   -1.1223792054
H        0.2046078071   -3.0621325423    4.7716543625
