27   

C        2.4506189496    1.0384552038   -0.4425082297
C        1.4321089668    0.2124065525   -0.9018016671
C        0.6507468716   -4.0845348769   -1.5569797549
C        2.2679077917    1.7788020947    0.7258691389
C        1.5952384577   -2.6943461989   -0.0816760992
C        0.4730904664   -2.8253622324   -0.8622485340
C        0.2555277116    0.1343142771   -0.1500408980
C        0.1294019951    0.9621628051    1.0040155565
C        1.8483867849   -4.5990339590   -1.1526396630
C       -0.7348448637   -1.9778032921   -1.0471709078
C       -2.1387383112   -0.1132651672   -0.2078835649
C       -2.1305665163    0.1539149551    1.3009400731
N        1.1316119462    1.7460414266    1.4294835957
N       -0.8344801576   -0.6707926598   -0.5504797915
O       -1.7234988655   -2.4605738505   -1.6018475186
O        2.4461247144   -3.7577186910   -0.2524637987
O       -1.0487630390    1.0080639129    1.7253667820
Br       2.5893401640   -6.2551853451   -1.7435562009
H        3.3854442330    1.1230548838   -0.9832672951
H        1.5511462780   -0.3481439950   -1.8238937079
H       -0.0421267716   -4.5380928498   -2.2590993834
H        3.0734191577    2.4149273386    1.0743087564
H        1.7960243095   -1.8831651476    0.6078647026
H       -2.9616192989   -0.7931850118   -0.4507104113
H       -2.3021479662    0.8194771605   -0.7575755189
H       -3.0821363474    0.6133138112    1.5856695673
H       -2.0541356176   -0.8002484805    1.8323619131
27   

C        2.4625382836    0.9273081055   -0.4423238393
C        1.4287624374    0.1123429590   -0.8860388854
C        0.7507309312   -3.9726019178   -1.7138090570
C        2.2843060350    1.7138248912    0.6955721008
C        1.4512520578   -2.7821613440    0.0481165459
C        0.4406688394   -2.8329804391   -0.8773501237
C        0.2380281959    0.0936246670   -0.1516759913
C        0.1224269728    0.9610250834    0.9746511493
C        1.9178737632   -4.5019968262   -1.2427766400
C       -0.7867114330   -2.0086418702   -1.0270931651
C       -2.1654579040   -0.1158249629   -0.2029900114
C       -2.1474728092    0.1956615979    1.2965830098
N        1.1392714381    1.7340418014    1.3851788728
N       -0.8695491830   -0.6974442740   -0.5386912099
O       -1.7945065342   -2.5112702930   -1.5253022508
O        2.3689761358   -3.7795782758   -0.1690022968
O       -1.0580805893    1.0552801017    1.6869809014
Br       2.7963985017   -6.0364867547   -1.9599943774
H        3.4060224399    0.9676464648   -0.9730620871
H        1.5487270128   -0.4814978605   -1.7867760735
H        0.1602426715   -4.3455014886   -2.5448319984
H        3.1015332913    2.3418179291    1.0312356398
H        1.5209696267   -2.0669475364    0.8600266853
H       -2.9972467462   -0.7933816128   -0.4205733905
H       -2.3226529281    0.8022081033   -0.7785902503
H       -3.0941599842    0.6700628234    1.5727762455
H       -2.0739403267   -0.7425124119    1.8561542944
27   

C        2.4470795105    0.8782834424   -0.4665482341
C        1.4035747178    0.0672174948   -0.8935245135
C        0.8634447739   -3.7965079549   -1.8655006514
C        2.2775245623    1.6924397980    0.6524798011
C        1.3265356065   -2.8657767764    0.1195690725
C        0.4210063895   -2.8098804713   -0.9054660756
C        0.2096545425    0.0805656241   -0.1629247801
C        0.1064663522    0.9720823104    0.9462146653
C        2.0055161311   -4.3484612836   -1.3587813674
C       -0.8359345832   -2.0217124363   -1.0067229410
C       -2.1996074741   -0.1118037392   -0.1918130147
C       -2.1645139588    0.2277145180    1.3007897259
N        1.1323535821    1.7419414673    1.3401326526
N       -0.9099663722   -0.7043723696   -0.5339465910
O       -1.8608175294   -2.5567581415   -1.4279679523
O        2.3132485623   -3.7818239509   -0.1485191501
O       -1.0702108768    1.0935683064    1.6604928483
Br       3.0255156056   -5.7250823981   -2.1985586923
H        3.3915908485    0.8939694231   -0.9967171397
H        1.5208228010   -0.5451625500   -1.7817870358
H        0.3735710850   -4.0632455817   -2.7964711805
H        3.1022218879    2.3178579803    0.9743837247
H        1.2724590136   -2.2769969807    1.0287407525
H       -3.0369409920   -0.7892047995   -0.3871802781
H       -2.3604598468    0.7961499048   -0.7821708133
H       -3.1073198628    0.7088356040    1.5785877155
H       -2.0853110733   -0.6994995592    1.8775386833
27   

C        2.4552355236    0.7963858266   -0.4557071441
C        1.3995300664   -0.0118086908   -0.8566637548
C        0.9701238023   -3.6484002136   -1.8629586153
C        2.2943435048    1.6574673499    0.6283377483
C        1.1914135193   -3.0201275735    0.2780025072
C        0.3974508850   -2.8307478625   -0.8175879479
C        0.2004764670    0.0512890427   -0.1359632255
C        0.1093831205    0.9873082733    0.9376258508
C        2.0767176549   -4.2423614344   -1.3251232573
C       -0.8776963695   -2.0641840818   -0.8981090442
C       -2.2139323701   -0.1033386889   -0.1589547703
C       -2.1722696670    0.2925490403    1.3190307879
N        1.1465598978    1.7548655842    1.3061310132
N       -0.9336734861   -0.7269789187   -0.4819239278
O       -1.9176971618   -2.6248877223   -1.2379990768
O        2.2370263244   -3.8594521336   -0.0176979737
O       -1.0668422536    1.1578289121    1.6424467589
Br       3.2323257841   -5.4479878787   -2.2479313219
H        3.4027347244    0.7733189725   -0.9801734617
H        1.5139815889   -0.6572712223   -1.7209419648
H        0.5883332577   -3.7840658930   -2.8695482021
H        3.1284829341    2.2806584656    0.9295421892
H        1.0189651243   -2.5749887857    1.2517752267
H       -3.0620770156   -0.7742833253   -0.3278018157
H       -2.3628151136    0.7838886486   -0.7829893673
H       -3.1082808687    0.7963434182    1.5790040441
H       -2.1036255039   -0.6124599722    1.9312252219
27   

C        2.4392080000    0.7515257413   -0.4962580176
C        1.3671904720   -0.0478638526   -0.8706579566
C        1.0042181842   -3.4868660772   -1.8597472245
C        2.3018963140    1.6374890952    0.5705903809
C        1.0684362295   -3.1764234084    0.3602748619
C        0.3463587292   -2.8394739172   -0.7468406872
C        0.1758630947    0.0483561640   -0.1412409254
C        0.1099773777    1.0081942274    0.9134692120
C        2.0872964583   -4.1370614007   -1.3391411999
C       -0.9420306558   -2.0837557990   -0.7849409179
C       -2.2392644146   -0.0645924432   -0.1387277073
C       -2.1798992650    0.3608084408    1.3300080597
N        1.1619737981    1.7677975459    1.2558369502
N       -0.9738260826   -0.7212094852   -0.4560734573
O       -2.0006725493   -2.6673462019   -1.0039991188
O        2.1514069850   -3.9483408235    0.0180544499
O       -1.0562922356    1.2122509542    1.6262011368
Br       3.3312785365   -5.1751638632   -2.3467242716
H        3.3814670636    0.7019212665   -1.0281756562
H        1.4642913553   -0.7108601207   -1.7227753460
H        0.6942324960   -3.4796851507   -2.8994225735
H        3.1485477471    2.2533680022    0.8511956719
H        0.8205254708   -2.8811705868    1.3738287135
H       -3.1035581410   -0.7184720259   -0.2913380042
H       -2.3725518652    0.8129280346   -0.7797998486
H       -3.1043778010    0.8876390826    1.5854550740
H       -2.1236074757   -0.5323219457    1.9606121727
27   

C        2.4465559743    0.6688633192   -0.5517155345
C        1.3511233380   -0.1112433069   -0.8984796221
C        0.9548068396   -3.3909698036   -1.8470172812
C        2.3461510278    1.5711113605    0.5054904762
C        0.9707426780   -3.3846212515    0.3945674313
C        0.2776698084   -2.8912907385   -0.6699280488
C        0.1750926818    0.0193804365   -0.1516144086
C        0.1468943532    0.9953816609    0.8905030556
C        2.0216562037   -4.1159611622   -1.3966901771
C       -1.0047449091   -2.1208092699   -0.6272724720
C       -2.2360568600   -0.0230435327   -0.1241260676
C       -2.1584528056    0.4214747056    1.3376300656
N        1.2203040552    1.7364856983    1.2059526036
N       -0.9958101241   -0.7315594812   -0.4305169598
O       -2.0853172415   -2.7023094449   -0.6733534962
O        2.0556364158   -4.1143990465   -0.0257294763
O       -1.0039334935    1.2369846232    1.6171837359
Br       3.2829441073   -5.0160426905   -2.5099042934
H        3.3788897674    0.5914909547   -1.0975300140
H        1.4189024108   -0.7841457683   -1.7440808534
H        0.6702495110   -3.2400671302   -2.8829320634
H        3.2106005001    2.1713409158    0.7649039688
H        0.7011920299   -3.2284477264    1.4332201569
H       -3.1258829621   -0.6427690813   -0.2723216690
H       -2.3346756333    0.8498271239   -0.7777476644
H       -3.0627622300    0.9852357512    1.5862585281
H       -2.1329603512   -0.4636345387    1.9814323617
27   

C        2.2240204769    1.6210837960   -0.0995982311
C        1.5560584697    0.4458028412    0.2187979166
C        1.0652362631   -1.6666911265   -2.3015766024
C        1.4983154804    2.7432712380   -0.4953603697
C        2.0106590930   -2.8991593359   -0.6836494761
C        0.8692632937   -2.2134426087   -0.9767355599
C        0.1611886821    0.4211442977    0.1095309950
C       -0.5055613624    1.6255129879   -0.2674130017
C        2.3086711068   -2.0668805023   -2.7008763403
C       -0.3122911924   -2.0128148807   -0.0843297102
C       -1.9322639515   -0.4354659641    0.9457381629
C       -2.6275771823    0.4885002383   -0.0569656412
N        0.1640180702    2.7485239617   -0.5704382483
N       -0.6057148054   -0.7331354522    0.4114923578
O       -1.1123461569   -2.9198301643    0.1307817775
O        2.9051868610   -2.8219532538   -1.7225711793
O       -1.8850674266    1.6951898774   -0.3203018084
Br       3.1144929089   -1.6318332604   -4.3745055892
H        3.3038200319    1.6806845558   -0.0396360209
H        2.1162866189   -0.4179296143    0.5551535612
H        0.3718158521   -1.0549882536   -2.8691547855
H        2.0345035473    3.6520914007   -0.7431690435
H        2.1934130845   -3.4260274686    0.2463576619
H       -1.8384678359    0.0639452290    1.9155272656
H       -2.5392600827   -1.3333820596    1.0974658511
H       -2.7755728714   -0.0502034636   -0.9986132066
H       -3.6157901467    0.7547196910    0.3301855574
27   

C        2.1173030712    1.7050624578   -0.3748034594
C        1.4903544873    0.5031897471   -0.0732534737
C        0.8148837739   -1.3976079124   -2.5511662045
C        1.3514452569    2.8494499054   -0.5891034736
C        1.7751605004   -2.9532407808   -1.2477093795
C        0.6989997579   -2.1155184366   -1.2998871418
C        0.0917571513    0.4759256735   -0.0152742978
C       -0.6127787727    1.7014042233   -0.2121406486
C        1.9528090890   -1.8571707087   -3.1510759589
C       -0.3403489719   -1.9698123172   -0.2406036901
C       -1.8971443960   -0.4665142705    0.9828958608
C       -2.6960682276    0.5332213006    0.1431454179
N        0.0177928361    2.8499434006   -0.5032464204
N       -0.6327334690   -0.7049038535    0.2915097815
O       -1.0294220677   -2.9255795242    0.1109736875
O        2.5568739637   -2.8085629302   -2.3677231775
O       -1.9880606550    1.7652569600   -0.0934535135
Br       2.6209585546   -1.2574513782   -4.8343791357
H        3.1966125500    1.7676526132   -0.4404693007
H        2.0863062898   -0.3807490868    0.1212017241
H        0.1420743286   -0.6402032790   -2.9397934999
H        1.8557169021    3.7792613535   -0.8258078340
H        1.9889508788   -3.6348972930   -0.4317504771
H       -1.7042724325   -0.0535001803    1.9783191066
H       -2.4858914410   -1.3799378155    1.1124044585
H       -2.9430697546    0.0760006786   -0.8205121824
H       -3.6377077308    0.7552771406    0.6544115474
27   

C        2.0315359364    2.2310342903    0.4006913014
C        1.5858826825    0.9195288153    0.4996541559
C        1.8425916272   -0.8168882749   -2.0658995960
C        1.1289373136    3.2459584559    0.0884212403
C        2.6322404356   -2.5340160297   -0.8506429574
C        1.5436619145   -1.7172730717   -0.9719578377
C        0.2325419323    0.6545391029    0.2576284832
C       -0.6295004883    1.7574748881   -0.0188935203
C        3.0906301621   -1.1541583190   -2.5073183414
C        0.3290972189   -1.8118124319   -0.1172267022
C       -1.7098575514   -0.6947645797    0.7615249351
C       -2.4927507465    0.2302916490   -0.1740725396
N       -0.1725416919    3.0161934995   -0.1106710997
N       -0.3103069868   -0.6529287424    0.3469619092
O       -0.1856667723   -2.9017984157    0.1307515879
O        3.5930750149   -2.1997598163   -1.7737867052
O       -1.9892627933    1.5798587687   -0.1882293407
Br       4.0138337652   -0.2930868439   -3.9376860663
H        3.0725764342    2.4781813241    0.5689659065
H        2.2809547943    0.1320096337    0.7682686276
H        1.2111836470   -0.0279773665   -2.4615668435
H        1.4929436563    4.2640816485    0.0123127652
H        2.7268811249   -3.3348185337   -0.1252395592
H       -1.8018341754   -0.3506413944    1.7967880752
H       -2.1336408067   -1.7023804025    0.7063512331
H       -2.4535473937   -0.1719417255   -1.1915871434
H       -3.5423066964    0.2441161294    0.1352159027
27   

C        2.2407969715    1.7141411388    0.3008470788
C        1.5917991739    0.5141745842    0.5608382276
C        1.9438691812   -1.6859267721   -1.5296255270
C        1.5484139660    2.7548373810   -0.3159789705
C        2.0959533606   -3.4443754315   -0.1382302824
C        1.3037925951   -2.3655411756   -0.4213422423
C        0.2545355053    0.3814400872    0.1691512063
C       -0.3901433915    1.5095468108   -0.4197484458
C        3.0791463855   -2.3931809017   -1.8074925078
C        0.0222769917   -2.1031460243    0.2842891723
C       -1.9146146282   -0.5844937097    0.6208930701
C       -2.4339937887    0.2324131324   -0.5657674457
N        0.2613123295    2.6575849943   -0.6631142326
N       -0.4869406288   -0.8026095386    0.4084434844
O       -0.6524201854   -3.0356222783    0.7230644259
O        3.1944257899   -3.4684641365   -0.9628945483
O       -1.7313806282    1.4765962401   -0.7503359144
Br       4.3305499367   -1.9554108264   -3.1794490402
H        3.2786155895    1.8555099481    0.5767656090
H        2.1186673400   -0.2900638507    1.0628294018
H        1.5995109829   -0.7973755111   -2.0488192100
H        2.0698071999    3.6840495403   -0.5149281188
H        1.8861493575   -4.1824730249    0.6285612441
H       -2.0728877021   -0.0366447943    1.5555038682
H       -2.4755575141   -1.5223504323    0.6831639629
H       -2.3409479212   -0.3636723806   -1.4793743390
H       -3.4974701930    0.4418660678   -0.4154426881
27   

C        2.0926424415    2.0891501039    0.5865041111
C        1.5539473059    0.8216008581    0.7655932064
C        2.1850588459   -1.2428652136   -1.3676160439
C        1.3159852828    3.0957883478    0.0147265250
C        2.2635820606   -3.2101070061   -0.2842429381
C        1.5226408873   -2.0611816056   -0.3701565069
C        0.2414868020    0.5898442995    0.3387140002
C       -0.4972783027    1.6862619753   -0.1967449949
C        3.2849547356   -1.9452423137   -1.7715041871
C        0.2394416862   -1.9101261312    0.3632556101
C       -1.8340294136   -0.5905726963    0.7101500520
C       -2.4167699902    0.2410854355   -0.4366562886
N        0.0487123470    2.9010991395   -0.3631318205
N       -0.3913238166   -0.6665129319    0.5041143099
O       -0.3231616892   -2.8980220499    0.8392607729
O        3.3567342352   -3.1466152882   -1.1136798344
O       -1.8268340785    1.5508829062   -0.5479459619
Br       4.5394444476   -1.3519275507   -3.0808665728
H        3.1082122375    2.3093611311    0.8919754490
H        2.1439067865    0.0403270664    1.2330863136
H        1.8760939252   -0.2741072895   -1.7461777778
H        1.7516120413    4.0789836257   -0.1209811314
H        2.0210908520   -4.0599200512    0.3450852548
H       -2.0490549738   -0.1132974335    1.6717486772
H       -2.3055133921   -1.5785460475    0.7113692657
H       -2.2655422147   -0.2936846278   -1.3799155898
H       -3.4956198064    0.3468668691   -0.2869436378
27   

C        2.3488991377    1.8457772129   -0.4836963874
C        1.5361548695    0.7898999754   -0.8766160921
C        2.1647753611   -1.9203341606    0.3418845833
C        1.9240160017    2.7056980731    0.5286541892
C        1.3887264879   -3.6127286648   -0.9143624988
C        1.0961087892   -2.3214185667   -0.5555801647
C        0.3162697068    0.6104557131   -0.2163924197
C       -0.0637480161    1.5625891074    0.7747091927
C        3.0297428847   -2.9755559909    0.4082425410
C       -0.2114801005   -1.7240833468   -0.9375628832
C       -1.9885519669   -0.0786275460   -0.4037700329
C       -2.1674099136    0.4045236640    1.0394026257
N        0.7427921929    2.5713460883    1.1399371698
N       -0.5811630190   -0.4230803586   -0.5727724512
O       -1.0283310265   -2.3917337384   -1.5756158390
O        2.5799663123   -4.0157354433   -0.3625646758
O       -1.3018420670    1.5036915280    1.3860946718
Br       4.6254813108   -3.0154530180    1.4535219698
H        3.3076472794    2.0156126032   -0.9581887120
H        1.8456492646    0.1284452770   -1.6793383134
H        2.2682982317   -0.9926810605    0.8936644402
H        2.5708666199    3.5227549120    0.8267586818
H        0.7654246190   -4.2424223812   -1.5406082165
H       -2.6484087410   -0.9339933081   -0.5811637753
H       -2.2663323041    0.7136174530   -1.1065839744
H       -3.2081721244    0.7092891135    1.1859946429
H       -1.9683279197   -0.4274244265    1.7226343403
27   

C        2.3750418556    1.7406369134   -0.4535420119
C        1.5419437135    0.6953406630   -0.8306746394
C        2.0452116147   -1.9952590077    0.4807015446
C        1.9546696740    2.6414112194    0.5238570658
C        1.4925105914   -3.5225807487   -1.0722985548
C        1.0552101383   -2.3484953684   -0.5185140411
C        0.3036121348    0.5673047803   -0.1913964060
C       -0.0663400854    1.5570287815    0.7668550011
C        3.0110178191   -2.9596166715    0.4217926248
C       -0.2666874435   -1.7698734242   -0.8720753403
C       -2.0168928814   -0.0814905270   -0.3750848260
C       -2.1926057040    0.4486004148    1.0512789209
N        0.7597168971    2.5554913106    1.1166061379
N       -0.6150801430   -0.4557535380   -0.5315164772
O       -1.1103521121   -2.4572747123   -1.4506326085
O        2.6969816794   -3.8974461583   -0.5285048268
O       -1.3122514882    1.5453837732    1.3643031296
Br       4.5715618548   -3.0107683515    1.5182782493
H        3.3466579707    1.8705467438   -0.9142723764
H        1.8519014713    0.0057078251   -1.6086928269
H        2.0316467764   -1.1509258378    1.1620129002
H        2.6173658374    3.4502564441    0.8092733375
H        0.9610806720   -4.0872184215   -1.8311160854
H       -2.6921435719   -0.9295610027   -0.5274296627
H       -2.2796177209    0.6934956769   -1.1024574834
H       -3.2290679869    0.7732385199    1.1849956039
H       -2.0073809394   -0.3641809508    1.7609680018
27   

C        2.4641030756    1.3595792343   -0.3494425524
C        1.5432632271    0.4007343487   -0.7511628841
C        1.7875277589   -2.3404898497    0.5763701161
C        2.1236783336    2.2682988361    0.6511805822
C        1.3228314152   -3.6176222767   -1.2136926912
C        0.8356822240   -2.5612609668   -0.4937184315
C        0.2975868486    0.3649067830   -0.1137181461
C        0.0164717451    1.3570244998    0.8720466105
C        2.7806281136   -3.2620101360    0.4007785589
C       -0.4657813573   -1.9123995073   -0.8005690969
C       -2.0704842933   -0.0854252495   -0.2923926872
C       -2.1913572510    0.4195550152    1.1483134806
N        0.9259129561    2.2712828218    1.2444213494
N       -0.7053754316   -0.5706789630   -0.4712070965
O       -1.3866784194   -2.5618310757   -1.2979353571
O        2.5189817900   -4.0481932494   -0.6929944550
O       -1.2228423646    1.4338659641    1.4782487095
Br       4.3163010604   -3.4394944609    1.5188686935
H        3.4437470981    1.4154725545   -0.8080896094
H        1.7940349911   -0.2928237963   -1.5464425933
H        1.7327994339   -1.6007308101    1.3684746656
H        2.8544287136    3.0086556197    0.9557176670
H        0.8325527201   -4.0586550894   -2.0750241725
H       -2.8171814944   -0.8676661731   -0.4616696471
H       -2.2719917199    0.7282949431   -0.9966223876
H       -3.1970112939    0.8231055233    1.3008193717
H       -2.0664356291   -0.4236807945    1.8353359281
27   

C        2.4178633493    1.6201613993   -0.2759092628
C        1.5957090277    0.5608861450   -0.6369641760
C        1.8398092410   -2.0311721468    1.0672400922
C        1.9366605956    2.6071444963    0.5822493477
C        1.8319544537   -3.2759625070   -0.8033629504
C        1.0768531548   -2.3677677302   -0.1165150068
C        0.3025019386    0.5074063431   -0.1028306128
C       -0.1220247575    1.5791602023    0.7382126520
C        2.9972233455   -2.7530511149    0.9931170376
C       -0.2577527185   -1.8825736840   -0.5610110395
C       -2.0114789383   -0.1283521545   -0.4042285600
C       -2.2806962034    0.5207469038    0.9559748435
N        0.6937681254    2.5909948745    1.0733346297
N       -0.6080014862   -0.5310336807   -0.4270952203
O       -1.1085647162   -2.6669856154   -0.9798521902
O        3.0138857922   -3.5179144847   -0.1463982657
O       -1.4101701233    1.6339205209    1.2349621914
Br       4.4002382886   -2.7047520595    2.2849822717
H        3.4287920709    1.6938610549   -0.6576873911
H        1.9591129103   -0.1933760530   -1.3257398012
H        1.5596123680   -1.3432942265    1.8583878158
H        2.5915554225    3.4261948496    0.8563583550
H        1.5406995436   -3.7409716040   -1.7389838961
H       -2.6925252976   -0.9746513269   -0.5380282574
H       -2.2064651242    0.5873366805   -1.2094673145
H       -3.3194633844    0.8633846331    0.9875468994
H       -2.1566060805   -0.2303429066    1.7428066468
27   

C        2.4516105611    1.2269470171    0.3477018868
C        1.5720376827    0.2347688965   -0.0651345061
C        0.9878009313   -2.0970262010    2.0393592973
C        1.9573605190    2.3801777819    0.9542269003
C        1.4097770378   -3.4085873868    0.2666026006
C        0.5313179284   -2.4659790496    0.7164593656
C        0.2031571685    0.4185029318    0.1641533442
C       -0.2197467724    1.6452058332    0.7585085276
C        2.1062320503   -2.8436384217    2.2794223756
C       -0.6277457944   -1.9230713458   -0.0486464584
C       -2.0653437704    0.0354712745   -0.5756972170
C       -2.5120987629    0.9020491210    0.6042981086
N        0.6517296757    2.5882525216    1.1492707803
N       -0.7678289673   -0.5386674816   -0.2287235714
O       -1.5308834224   -2.6584041054   -0.4430041028
O        2.3829165677   -3.6514507582    1.2049268481
O       -1.5595750061    1.9278165318    0.9444143136
Br       3.1486161262   -2.7706618196    3.8755758174
H        3.5192033242    1.1199217023    0.1996152318
H        1.9531035362   -0.6496264261   -0.5620885079
H        0.5419231077   -1.3699402132    2.7101099014
H        2.6570370589    3.1442241140    1.2729028358
H        1.3527847536   -3.8948911010   -0.7010802122
H       -2.8255550372   -0.7272322121   -0.7708899526
H       -1.9714563794    0.6474435357   -1.4786493721
H       -3.4696429534    1.3713995406    0.3589339415
H       -2.6717752063    0.2629742646    1.4788192410
27   

C        2.4934897010    1.2183872982   -0.1360594404
C        1.5545663378    0.2843757607   -0.5542892948
C        1.2652668678   -2.4187199664    1.3542942682
C        2.1119896605    2.2426198206    0.7288447682
C        1.5458415046   -3.2071001642   -0.7267317654
C        0.6610800771   -2.5118927374    0.0432518535
C        0.2459975333    0.3919944756   -0.0703569091
C       -0.0677839734    1.4926068437    0.7824300851
C        2.4654921784   -3.0652540654    1.2695202708
C       -0.6336252736   -1.9108334344   -0.3984702757
C       -2.1095424709    0.0860022766   -0.4850259536
C       -2.3600593388    0.7331937042    0.8791521559
N        0.8589570880    2.3816940280    1.1722595791
N       -0.7792433791   -0.5156278135   -0.4399065842
O       -1.6230648122   -2.6072845595   -0.6105624752
O        2.6567770161   -3.5544355831    0.0017614596
O       -1.3566071973    1.7044683381    1.2349960061
Br       3.7112258927   -3.2545509683    2.7019857530
H        3.5201286694    1.1659028692   -0.4771922347
H        1.8422354961   -0.4947352757   -1.2494971822
H        0.8573703838   -1.9293281304    2.2325196022
H        2.8571543763    2.9620234004    1.0482936189
H        1.3991080273   -3.4454008318   -1.7743896190
H       -2.8978377758   -0.6437599762   -0.6942120938
H       -2.1476294296    0.8441005245   -1.2740411896
H       -3.3399558098    1.2200083189    0.8676945473
H       -2.3874841899   -0.0469636632    1.6468887652
27   

C        2.3742123955    1.0106746047    0.2920803363
C        1.5191976591   -0.0444867574    0.5825434149
C        1.8559348333   -3.4650505043    0.5832674108
C        1.8987093218    2.1103273399   -0.4195930574
C        1.3593169734   -2.8847797976   -1.5242594599
C        0.8600787442   -2.8361563108   -0.2572634838
C        0.1981277840    0.0214555510    0.1260966092
C       -0.2157832499    1.2020745168   -0.5625221903
C        2.8900181019   -3.8100840011   -0.2402613421
C       -0.5006478667   -2.3680094688    0.1542464646
C       -2.1201893748   -0.5190828533    0.5126478424
C       -2.4467226186    0.2890163326   -0.7446124723
N        0.6311566522    2.2078144957   -0.8310963056
N       -0.7493811393   -1.0047874612    0.3746107578
O       -1.4402620728   -3.1560445216    0.2176174318
O        2.6099445380   -3.4522757555   -1.5341795871
O       -1.5249906155    1.3729224612   -0.9719475772
Br       4.4942527394   -4.6776894794    0.3200345449
H        3.4069771642    0.9948963175    0.6181082989
H        1.8800193594   -0.8806626537    1.1682503297
H        1.7953671071   -3.6463632335    1.6511255213
H        2.5790326234    2.9248524313   -0.6399404153
H        0.8394744380   -2.5295722434   -2.4071176388
H       -2.1995453466    0.1175938739    1.3998882309
H       -2.8472732010   -1.3290416951    0.6272264781
H       -2.4335759708   -0.3771046094   -1.6133240598
H       -3.4591913647    0.6940969493   -0.6538667082
27   

C        2.3640861023    1.0448701139    0.2493010143
C        1.5163346527   -0.0099383827    0.5608950393
C        1.8408211620   -3.5912257071    0.5773945910
C        1.8794755652    2.1298610617   -0.4786094848
C        1.3704276319   -2.7278819763   -1.4382702664
C        0.8732864465   -2.8208125590   -0.1714222059
C        0.1919331913    0.0420693358    0.1093604143
C       -0.2307596926    1.2075533434   -0.5984977087
C        2.8581255585   -3.8750801910   -0.2894333855
C       -0.4637155455   -2.3542933068    0.3054128386
C       -2.1280735716   -0.5183271370    0.4965350093
C       -2.4493903913    0.2683925625   -0.7760663447
N        0.6099637270    2.2127511290   -0.8877784138
N       -0.7480138020   -0.9838417669    0.3872984180
O       -1.3606336980   -3.1623726954    0.5332638816
O        2.5947345343   -3.3436158510   -1.5263468580
O       -1.5415672796    1.3625870950   -1.0077882596
Br       4.4204060913   -4.8803353540    0.1454359464
H        3.3981571620    1.0402325506    0.5716750025
H        1.8854289373   -0.8363674099    1.1574273572
H        1.7704086041   -3.9031922303    1.6141121915
H        2.5543700358    2.9444611869   -0.7148473109
H        0.8674280398   -2.2400516317   -2.2658802104
H       -2.2331948347    0.1269821197    1.3747735254
H       -2.8429881770   -1.3400511569    0.6038731773
H       -2.4145677606   -0.4089091540   -1.6354583232
H       -3.4690111506    0.6592398282   -0.7047905070
27   

C        2.3411769724    1.1573238885    0.2379922748
C        1.5410756321    0.0701515529    0.5641012110
C        1.9141765499   -3.7086748703    0.5202844240
C        1.8076111254    2.2122532431   -0.5002009518
C        1.5425922255   -2.5238128568   -1.3466547309
C        0.9999725157   -2.7914229945   -0.1217265165
C        0.2141481597    0.0608030072    0.1165521926
C       -0.2613841945    1.1984982191   -0.6021547855
C        2.9465543127   -3.8990897493   -0.3540976456
C       -0.3251580783   -2.3569610362    0.4030609338
C       -2.0785915566   -0.5993991927    0.5181975645
C       -2.4360108477    0.1595031644   -0.7621254828
N        0.5345116717    2.2351592470   -0.9063936422
N       -0.6784768617   -1.0006713985    0.4135102773
O       -1.1619095309   -3.1917576508    0.7413747121
O        2.7439513301   -3.1709530261   -1.4988497430
O       -1.5791743983    1.2913072110   -1.0073343842
Br       4.4527912258   -5.0284203773   -0.0436072372
H        3.3753629373    1.2014516167    0.5571549504
H        1.9469044990   -0.7350755272    1.1671011853
H        1.7973556115   -4.1734971714    1.4937752679
H        2.4457031739    3.0527616162   -0.7477155117
H        1.0865963139   -1.8920008137   -2.1009768998
H       -2.2152782018    0.0476592478    1.3907739144
H       -2.7529882508   -1.4542533998    0.6297298940
H       -2.3710882296   -0.5242549709   -1.6146480734
H       -3.4724002813    0.5041233849   -0.6939608490
27   

C        2.3234813056    1.2304483665    0.2731013242
C        1.5415232966    0.1364713528    0.6206532107
C        1.8347788915   -3.8714453768    0.4977178155
C        1.7807264556    2.2482135856   -0.5100934727
C        1.6851612884   -2.3900706727   -1.1768883568
C        1.0395456683   -2.7889220987   -0.0376400848
C        0.2248536923    0.0837923430    0.1484199561
C       -0.2636638455    1.1860236512   -0.6145204629
C        2.9018898748   -4.0229636762   -0.3413633961
C       -0.2665460633   -2.3354370951    0.5099079826
C       -2.0557939936   -0.6123986343    0.5438522897
C       -2.4143381686    0.0956356076   -0.7655356675
N        0.5151966000    2.2289784963   -0.9399738467
N       -0.6470593116   -0.9872821099    0.4644857811
O       -1.0741326823   -3.1634821626    0.9297254437
O        2.8352101782   -3.1152171056   -1.3670609137
O       -1.5765747234    1.2348802844   -1.0427734938
Br       4.2847412782   -5.3213622103   -0.1349794686
H        3.3501808084    1.3090754173    0.6094526755
H        1.9504934100   -0.6430781699    1.2553284181
H        1.6167685431   -4.4633657357    1.3808562637
H        2.4046463845    3.0941389425   -0.7747239984
H        1.3358342881   -1.6142393010   -1.8493729126
H       -2.2147428495    0.0602895474    1.3929703505
H       -2.7127702283   -1.4778085832    0.6765780384
H       -2.3278460865   -0.6158885746   -1.5931170180
H       -3.4578516393    0.4219662544   -0.7194881138
27   

C        2.3248867387    1.2860463929    0.2623139616
C        1.5567045767    0.1861848844    0.6227849347
C        1.7187392733   -4.0226434804    0.3245401201
C        1.7737427648    2.2806070641   -0.5453166545
C        1.8085125264   -2.3033146436   -1.1065353859
C        1.0554591213   -2.7994676703   -0.0735383783
C        0.2471854660    0.1047678599    0.1369594766
C       -0.2534736358    1.1859150578   -0.6471444126
C        2.8147199031   -4.1567630661   -0.4786978815
C       -0.2168325830   -2.3180848574    0.5247686698
C       -2.0201932049   -0.6121419668    0.5472841489
C       -2.3923906229    0.0675177168   -0.7739285485
N        0.5124117406    2.2341740108   -0.9857251448
N       -0.6085443510   -0.9736461799    0.4641603383
O       -0.9953176843   -3.1315269204    1.0235448904
O        2.8931542377   -3.1067485836   -1.3560067030
O       -1.5654246769    1.2076846388   -1.0809693444
Br       4.0578760870   -5.6026140435   -0.4083805542
H        3.3469281071    1.3876434354    0.6066722322
H        1.9682773192   -0.5783886940    1.2742452253
H        1.3974463612   -4.7103609668    1.1005202490
H        2.3869434562    3.1308873968   -0.8208413504
H        1.5810022088   -1.4070045509   -1.6726259171
H       -2.1806715156    0.0746206847    1.3847889587
H       -2.6666989476   -1.4822328415    0.6998329599
H       -2.3056424098   -0.6599620071   -1.5875284585
H       -3.4382619312    0.3862328631   -0.7277790239
27   

C        2.2772111282    1.3652827530    0.3159030149
C        1.5272174062    0.2537265794    0.6803106808
C        1.5718501424   -4.1351309315    0.1215575082
C        1.7249279495    2.3253664434   -0.5326455872
C        1.9465048221   -2.2315432402   -0.9905979282
C        1.0577642164   -2.8005211823   -0.1117688077
C        0.2380857658    0.1259067396    0.1539206890
C       -0.2702859837    1.1769018511   -0.6645211384
C        2.7133342180   -4.2589937504   -0.6160974025
C       -0.1921616792   -2.3076855345    0.5259105968
C       -2.0133749427   -0.6239671461    0.5537590413
C       -2.3897113488    0.0175305000   -0.7859818757
N        0.4781409372    2.2363561151   -1.0069506801
N       -0.5967486460   -0.9661917971    0.4800042978
O       -0.9485438457   -3.1192320802    1.0621617301
O        2.9636366379   -3.0995327044   -1.3004094293
O       -1.5736580937    1.1576693158   -1.1244778512
Br       3.8064808681   -5.8209186013   -0.6964961238
H        3.2855165569    1.5028078756    0.6872280016
H        1.9349390228   -0.4876089011    1.3606378185
H        1.1278974928   -4.8964599461    0.7556290976
H        2.3241158591    3.1842371312   -0.8123348183
H        1.8658648021   -1.2408126259   -1.4214177852
H       -2.1847911138    0.0812941133    1.3735849967
H       -2.6477813013   -1.4989444907    0.7277603228
H       -2.2946747405   -0.7307705238   -1.5795203255
H       -3.4389104300    0.3264960102   -0.7496844010
27   

C        2.2431353486    1.4644289853    0.3598315081
C        1.5129640011    0.3467836413    0.7467106991
C        1.4453633470   -4.2049261560   -0.0256016997
C        1.6985905029    2.3636366534   -0.5583376994
C        2.1135462997   -2.2182404607   -0.7984640626
C        1.0918125494   -2.7991277640   -0.0861505554
C        0.2560222397    0.1496800449    0.1688509561
C       -0.2532369142    1.1463261612   -0.7137689623
C        2.6255307244   -4.3545378675   -0.6929038550
C       -0.1399917539   -2.2859837211    0.5757855766
C       -1.9806064134   -0.6278544296    0.5584718479
C       -2.3486879040   -0.0607962642   -0.8175221924
N        0.4757733846    2.2122358752   -1.0773017861
N       -0.5580474318   -0.9489686759    0.5161801883
O       -0.8783715200   -3.0868508506    1.1523681256
O        3.0528971735   -3.1464777946   -1.1726365708
O       -1.5414880512    1.0693386515   -1.2096778796
Br       3.5537486692   -6.0046746120   -0.9309333096
H        3.2295109427    1.6536974068    0.7656330582
H        1.9103531203   -0.3493836187    1.4788869926
H        0.8767814587   -4.9931285674    0.4585877518
H        2.2824746474    3.2270592023   -0.8558333935
H        2.1909714668   -1.1772906546   -1.0815769532
H       -2.1725091846    0.1151331049    1.3395682016
H       -2.6031267802   -1.5029584707    0.7706778178
H       -2.2370651871   -0.8487251126   -1.5693930907
H       -3.4016423458    0.2372974486   -0.8082510125
