29   

C        3.1035496182   -1.2030968108    1.7475705293
C        1.4091133565   -1.5973530956    0.0806093944
C        2.2015879134   -0.4168287196    2.4737365654
C        0.5135007261   -0.8088265199    0.8131640263
C        8.6196321415   -4.8927006086    2.0930585239
C        2.7327594007   -1.8046142647    0.5267251272
C        0.9004616022   -0.2096391404    2.0130680991
C        8.7122688871   -5.4071104765    0.8274325952
C        6.8298191538   -4.2780584576    0.5704745266
C        3.7024165726   -2.6399621917   -0.2168134320
C        9.8548483472   -6.2651052443    0.3804921065
C        3.4692370824   -3.0192585591   -1.6609711313
N        7.6918677448   -5.0446694972   -0.0417815426
N        4.7784859102   -3.0455547883    0.4272627854
N        5.7306847838   -3.8355393846   -0.1526369132
S        7.1877915192   -3.9136099385    2.2554305083
Cl      -0.2222111470    0.7717516488    2.9217567274
H        4.1038868342   -1.3353938469    2.1472157689
H        1.0387735669   -2.0543688209   -0.8281226469
H        2.5136987332    0.0375048851    3.4068373481
H       -0.4979653208   -0.6622112395    0.4525177347
H        9.3379379646   -5.0651163043    2.8841549556
H        9.5789500398   -7.3195069135    0.4680405024
H       10.0981872203   -6.0472493621   -0.6632478951
H       10.7387020815   -6.0742140024    0.9956714785
H        4.3787975865   -2.8489662065   -2.2441295027
H        3.2050750423   -4.0786358291   -1.7262411145
H        2.6817276607   -2.4231930163   -2.1245012145
H        5.6915342835   -4.1730470115   -1.1089228136
29   

C        3.1284952971   -1.0459908113    1.6552812826
C        1.3574377208   -1.7906785719    0.1986564894
C        2.2095353309   -0.2692234163    2.3705288532
C        0.4439803585   -1.0110255696    0.9185165817
C        8.6457003505   -4.8709001032    2.0735107324
C        2.7207557983   -1.8210723467    0.5526514399
C        0.8604300576   -0.2429894067    2.0087710209
C        8.7250209805   -5.3860901689    0.8072924882
C        6.8334132419   -4.2673356656    0.5734139487
C        3.7068963046   -2.6279424336   -0.1996191748
C        9.8254856037   -6.3021039407    0.3698086562
C        3.5191343883   -2.9059614776   -1.6734895488
N        7.6830265745   -5.0435396371   -0.0441256935
N        4.7642838087   -3.0610760495    0.4549415677
N        5.7272427127   -3.8264194610   -0.1397522039
S        7.2183981575   -3.8873118748    2.2488218652
Cl      -0.2834372088    0.7269302119    2.9032262521
H        4.1691193253   -1.0423498188    1.9637751609
H        0.9863700961   -2.3834243250   -0.6291523762
H        2.5449055139    0.3195170977    3.2163416697
H       -0.6018377298   -1.0017608079    0.6343294824
H        9.3648215568   -5.0544124903    2.8613547059
H        9.4319766895   -7.0532720413   -0.3208791986
H       10.6039242302   -5.7260982261   -0.1378041167
H       10.2626578355   -6.8123388911    1.2327524093
H        4.4213576415   -2.6237748162   -2.2239013249
H        3.3314373410   -3.9722442981   -1.8286791014
H        2.6869416219   -2.3325122256   -2.0882581773
H        5.6888284631   -4.1514572189   -1.1004159687
29   

C        3.1969415057   -0.8544876347    1.5023057106
C        1.4084366805   -1.9093165015    0.2751068998
C        2.2618384532   -0.0630199321    2.1797449470
C        0.4778499820   -1.1146796366    0.9555537353
C        8.6258098669   -4.9685077373    2.1602752059
C        2.7840038695   -1.7956411955    0.5432406672
C        0.8949381783   -0.1853789562    1.9131944455
C        8.7546608449   -5.4155040331    0.8724253828
C        6.8730106820   -4.2828667992    0.6252744642
C        3.7850856355   -2.6001014474   -0.1946948177
C        9.8716998915   -6.3087565222    0.4298717074
C        3.6586278056   -2.7858355416   -1.6899542826
N        7.7464032096   -5.0263830824    0.0006768739
N        4.8113273655   -3.0648089295    0.4848087052
N        5.7961285695   -3.8035459974   -0.1076040105
S        7.1923754484   -3.9931892298    2.3321184729
Cl      -0.2692527819    0.8037418866    2.7590606805
H        4.2529525322   -0.7403283234    1.7254574126
H        1.0530979384   -2.6240758225   -0.4586625191
H        2.5974206120    0.6536855526    2.9201441155
H       -0.5799260341   -1.2170229620    0.7429690321
H        9.3136380464   -5.1951045450    2.9646634612
H        9.5077195086   -7.0159612521   -0.3208230594
H       10.6727508932   -5.7070892367   -0.0080098386
H       10.2695061029   -6.8711341168    1.2793445407
H        4.5606052974   -2.4195056677   -2.1887575894
H        3.5318134592   -3.8467739334   -1.9234908830
H        2.8024287936   -2.2311783422   -2.0830212294
H        5.7982812323   -4.0765156734   -1.0851072696
29   

C        3.1945945422   -0.6967485437    1.3754722603
C        1.4330499574   -2.0572001446    0.4461672497
C        2.2396177328    0.0828324194    2.0390255450
C        0.4815410411   -1.2742795425    1.1111404354
C        8.5807333413   -5.0968245006    2.1799353965
C        2.8039912446   -1.7845038453    0.5790956423
C        0.8753737296   -0.1985676501    1.9136091551
C        8.7411037035   -5.4705301288    0.8724426053
C        6.8750842965   -4.3090732882    0.6408430471
C        3.8199422704   -2.5680245209   -0.1687465865
C        9.8624710163   -6.3478315747    0.4093941062
C        3.7329049996   -2.6503882328   -1.6765113982
N        7.7598149606   -5.0230374910   -0.0020697812
N        4.8228944678   -3.0732294011    0.5141359687
N        5.8216825756   -3.7807937280   -0.0925256885
S        7.1503093572   -4.1203459271    2.3693204038
Cl      -0.3141903675    0.7768459955    2.7398505068
H        4.2488520150   -0.4628271342    1.4823997617
H        1.1037739855   -2.8840606895   -0.1733818942
H        2.5565582422    0.9146157827    2.6572142663
H       -0.5735574944   -1.4985143815    1.0061307184
H        9.2446230967   -5.3753586285    2.9881116005
H        9.5135220760   -7.0067557908   -0.3907464398
H       10.6805021642   -5.7299908836    0.0292559558
H       10.2316069983   -6.9624347867    1.2353067813
H        4.6317999400   -2.2189010308   -2.1262784581
H        3.6469295529   -3.6950900275   -1.9884878339
H        2.8619376171   -2.0993019284   -2.0424188965
H        5.8505297564   -3.9965473945   -1.0838134951
29   

C        3.1355292131   -0.5266297060    1.1914526255
C        1.5010856284   -2.2130442444    0.6416637504
C        2.1467222589    0.2141277527    1.8501429421
C        0.5149108767   -1.4687331016    1.3004281361
C        8.5139479646   -5.2273200701    2.1985470826
C        2.8251535144   -1.7529678542    0.5870476221
C        0.8281425285   -0.2492980851    1.9102792155
C        8.7148333460   -5.5276745747    0.8778292647
C        6.8708898219   -4.3304965364    0.6510703788
C        3.8697234008   -2.5044761948   -0.1649324797
C        9.8415176941   -6.3917297342    0.4029102706
C        3.8223741245   -2.5064553167   -1.6770567680
N        7.7690989264   -5.0181028524   -0.0018840270
N        4.8386267873   -3.0616817611    0.5246474127
N        5.8495046344   -3.7478754655   -0.0864480703
S        7.0887173313   -4.2448332716    2.3957881208
Cl      -0.4045785806    0.6785261886    2.7280191718
H        4.1534455165   -0.1533052360    1.1526155926
H        1.2380384613   -3.1541275696    0.1712759329
H        2.4005708249    1.1573701331    2.3195403530
H       -0.5041228199   -1.8354613108    1.3404982873
H        9.1466641251   -5.5600904636    3.0111967863
H        9.5124960325   -6.9999558226   -0.4444237235
H       10.6785794799   -5.7639686108    0.0856606520
H       10.1759285080   -7.0566243360    1.2042955143
H        4.7270894463   -2.0417607339   -2.0794624051
H        3.7558836196   -3.5333988333   -2.0472762725
H        2.9521471210   -1.9463737551   -2.0314502843
H        5.9118709319   -3.9059190050   -1.0870266889
29   

C        3.0034815596   -0.3343971224    0.9185717896
C        1.6776618954   -2.3479006507    0.8600065547
C        1.9672112483    0.3257789328    1.5901313447
C        0.6432296360   -1.6843132418    1.5307480434
C        8.3997072923   -5.3778338159    2.2277012783
C        2.8677903795   -1.6776422547    0.5427311068
C        0.7772880588   -0.3416125362    1.8997878029
C        8.6546387617   -5.6114098264    0.9028106736
C        6.8638887927   -4.3391325549    0.6589581049
C        3.9649478917   -2.3725855586   -0.1962605202
C        9.7746819239   -6.4862628533    0.4318842812
C        3.9609854567   -2.3338121619   -1.7087062093
N        7.7697915044   -5.0208979040    0.0104663480
N        4.8802376164   -2.9973550209    0.5077722584
N        5.8994814468   -3.6813247442   -0.0919065504
S        6.9988452044   -4.3587705076    2.4139656693
Cl      -0.5154894886    0.4851251393    2.7330926146
H        3.9211924763    0.1968105610    0.6904188864
H        1.5592859202   -3.3903484573    0.5849414352
H        2.0834666524    1.3643904792    1.8769390667
H       -0.2724968505   -2.2120567821    1.7703865614
H        8.9814643315   -5.7765479515    3.0487050497
H        9.4621380166   -7.0462294583   -0.4540738511
H       10.6404639218   -5.8698530175    0.1752425851
H       10.0593038831   -7.1956995439    1.2140775337
H        4.8804538947   -1.8662644249   -2.0723714532
H        3.8967115609   -3.3497340209   -2.1086503234
H        3.1047872435   -1.7573844070   -2.0711125676
H        6.0066715978   -3.7859421407   -1.0956935257
29   

C        2.9266190872   -0.2049464314    0.7402586567
C        1.8900590032   -2.3436879529    1.1457210817
C        1.9096192324    0.4232966188    1.4695633453
C        0.8750061479   -1.7121681819    1.8742614112
C        8.1363657912   -5.7389036358    2.1603396810
C        2.9194927134   -1.5953817800    0.5557691179
C        0.8730042417   -0.3232807717    2.0394853848
C        8.5366811904   -5.7601821714    0.8510902212
C        6.7655888916   -4.4589107589    0.6171001948
C        4.0163370746   -2.2703719942   -0.1956486169
C        9.7648957113   -6.4805674354    0.3884474643
C        4.0553815740   -2.1532705588   -1.7033692952
N        7.7534508565   -5.0215970792   -0.0259079197
N        4.8586973608   -3.0098031925    0.4889139244
N        5.8814869314   -3.6815156840   -0.1182922101
S        6.7006608074   -4.7701140564    2.3485682979
Cl      -0.3940829456    0.4628079950    2.9481841726
H        3.7284323984    0.3902343100    0.3172591583
H        1.8861582978   -3.4233991448    1.0401152626
H        1.9231384325    1.4988412222    1.6018792423
H        0.0837119966   -2.3020682717    2.3218584124
H        8.6445886982   -6.2458627983    2.9703840480
H        9.4920862585   -7.4714296100    0.0154032569
H       10.2454277794   -5.9176527220   -0.4167683844
H       10.4751634440   -6.5911436913    1.2127269136
H        5.0060932081   -1.7148804084   -2.0197003380
H        3.9519855991   -3.1429789897   -2.1574255562
H        3.2384779142   -1.5171089717   -2.0562570586
H        6.0866998678   -3.6375300996   -1.1112486060
29   

C        2.7504928152   -0.1970145339    0.5370552073
C        2.0592634579   -2.3660507728    1.3316501201
C        1.7148374842    0.3974223953    1.2684598915
C        1.0254895371   -1.7675996374    2.0615644107
C        8.0301092112   -5.8609594697    2.1411638840
C        2.9241458514   -1.5903818988    0.5431104580
C        0.8408963039   -0.3817430129    2.0334297195
C        8.4928265010   -5.8087545346    0.8535038815
C        6.7427725919   -4.4806281415    0.6126985343
C        4.0504625404   -2.2175130858   -0.1945211894
C        9.7375670544   -6.5113793697    0.4080502814
C        4.1629668036   -2.0243869921   -1.6904131478
N        7.7570460443   -5.0131335667   -0.0146074946
N        4.8535109937   -3.0089701869    0.4811052011
N        5.8993514573   -3.6536100782   -0.1162124990
S        6.5925239348   -4.8926876657    2.3176252448
Cl      -0.4486577194    0.3630082600    2.9453408016
H        3.4252519809    0.4295512116   -0.0357055618
H        2.1988623361   -3.4411197765    1.3793881757
H        1.5875264820    1.4735202237    1.2509047125
H        0.3632606463   -2.3806102404    2.6616795828
H        8.4960180294   -6.4189021153    2.9431050003
H        9.4773020921   -7.4772157820   -0.0333365854
H       10.2582929091   -5.9074481088   -0.3404659761
H       10.4078050000   -6.6742861492    1.2568007910
H        5.1226894074   -1.5608523264   -1.9357746333
H        4.0958624318   -2.9911794710   -2.1976574230
H        3.3565295687   -1.3821130058   -2.0556375100
H        6.1533112444   -3.5507970328   -1.0934299540
29   

C        2.5840723532   -0.2594293576    0.3842318107
C        2.1929838294   -2.3603950691    1.4989468808
C        1.5291564540    0.3144901427    1.1045378968
C        1.1396556345   -1.7820438710    2.2167053870
C        7.9544437472   -5.9762734701    2.1180183306
C        2.9221799324   -1.6121161030    0.5576784838
C        0.7954546648   -0.4411871535    2.0238169875
C        8.4677407718   -5.8567584635    0.8542097614
C        6.7264269666   -4.5170858129    0.6142268327
C        4.0617295866   -2.2114743719   -0.1742817620
C        9.7299685241   -6.5360148999    0.4218884860
C        4.2462227872   -1.9359550012   -1.6495133009
N        7.7656958363   -5.0162373674    0.0006219205
N        4.8409601240   -3.0402013896    0.4866402647
N        5.9105116385   -3.6528012736   -0.1025898277
S        6.5093621806   -5.0179814179    2.2879267000
Cl      -0.5181488817    0.2789276399    2.9210704359
H        3.1450616871    0.3591308473   -0.3072948371
H        2.4501293354   -3.4000082603    1.6751024251
H        1.2772162444    1.3581978131    0.9571386222
H        0.5861668384   -2.3758375252    2.9347185216
H        8.3891413653   -6.5759180096    2.9072948535
H        9.4883879545   -7.4761787975   -0.0812430790
H       10.2799531630   -5.8932515191   -0.2713208662
H       10.3656159972   -6.7456024131    1.2868476309
H        5.1984550233   -1.4244272988   -1.8162709626
H        4.2480504963   -2.8770407912   -2.2071204256
H        3.4357004896   -1.3118955134   -2.0354449839
H        6.2037066481   -3.4964329877   -1.0615508460
29   

C        2.4325338196   -0.3423954475    0.2529355462
C        2.3237318041   -2.3085963434    1.6392582602
C        1.3607931558    0.2117308893    0.9642020116
C        1.2532793878   -1.7499676455    2.3467837531
C        7.8824577225   -6.0798636219    2.0835386912
C        2.9281775610   -1.6189496408    0.5693049311
C        0.7597835708   -0.4864222153    2.0145409068
C        8.4422075986   -5.9023612423    0.8465302548
C        6.7116859670   -4.5489775266    0.6055757268
C        4.0705077969   -2.2061535077   -0.1653726598
C        9.7188627402   -6.5640136748    0.4295460862
C        4.3228451297   -1.8549009390   -1.6136882773
N        7.7727941336   -5.0209508669    0.0081060463
N        4.8317238408   -3.0652394381    0.4799259494
N        5.9222150037   -3.6506008805   -0.0988061064
S        6.4326929115   -5.1271679240    2.2448978318
Cl      -0.5751519467    0.2100457888    2.8988944103
H        2.8799870116    0.2478478496   -0.5379725216
H        2.6862616565   -3.2906002112    1.9261645286
H        0.9916104950    1.1974231255    0.7059838784
H        0.8017264973   -2.3000637774    3.1640982880
H        8.2872290866   -6.7172015082    2.8590816771
H        9.4950672027   -7.4803858271   -0.1232615999
H       10.2934049322   -5.8920895547   -0.2143381733
H       10.3232001558   -6.8131234760    1.3063846969
H        5.2464338939   -1.2752760054   -1.6990475740
H        4.4251012812   -2.7685628817   -2.2064307608
H        3.4978415797   -1.2786788816   -2.0387661612
H        6.2511550084   -3.4474748016   -1.0371743049
29   

C        2.5516747244   -0.0660144021    0.8413084550
C        2.1126699702   -2.3680832242    1.3856253166
C        1.7245053375    0.3339697687    1.8987541798
C        1.2879763832   -1.9622491035    2.4405634483
C        5.7514442831   -7.3189284857   -1.1784158843
C        2.7611230709   -1.4265233467    0.5566655755
C        1.0842320044   -0.6077323875    2.7063375335
C        6.4010387981   -6.7056137147   -2.2161911094
C        5.2583024334   -4.9607216603   -1.4855940517
C        3.6282788696   -1.8676322497   -0.5591567609
C        7.3911252984   -7.4135772813   -3.0879884879
C        4.0616311173   -0.9102166669   -1.6450817028
N        6.1205836621   -5.3560442840   -2.3832591024
N        4.0209088272   -3.1256546181   -0.5627281362
N        4.8644781552   -3.6300707348   -1.5119628409
S        4.7133474725   -6.1910786108   -0.3502756377
Cl       0.0559146429   -0.1014962214    4.0237255442
H        3.0358871442    0.7173022981    0.2726288614
H        2.2420677035   -3.4318956240    1.2138243293
H        1.5791732172    1.3884407323    2.1026595182
H        0.8009697159   -2.7058525945    3.0605744381
H        5.8708563138   -8.3588713641   -0.9031493483
H        6.8979689411   -7.7570386921   -4.0013532941
H        8.2034195169   -6.7325822363   -3.3574182142
H        7.8138060123   -8.2751429507   -2.5634139080
H        5.1110037639   -0.6380237394   -1.5002287595
H        3.9553446086   -1.3833052491   -2.6255410792
H        3.4536482712   -0.0046618058   -1.6688502581
H        5.2909230938   -3.0796048108   -2.2502608071
29   

C        2.3237398333   -0.0866313973    0.6461110515
C        2.3095756360   -2.3330417490    1.5024611106
C        1.4352939304    0.2940081998    1.6608171114
C        1.4228578872   -1.9456699800    2.5124802573
C        5.6937287685   -7.3486227598   -1.1862299349
C        2.7842542972   -1.4107702184    0.5405130985
C        0.9767127629   -0.6281490046    2.6018029083
C        6.3688562800   -6.7427200701   -2.2119874392
C        5.3038279090   -4.9652875760   -1.4435039229
C        3.7223105480   -1.8444774327   -0.5209381216
C        7.3218686405   -7.4763258390   -3.1036582615
C        4.2523150168   -0.8930025920   -1.5680491953
N        6.1491722105   -5.3786188494   -2.3491132798
N        4.0927302319   -3.1098710156   -0.5242162897
N        4.9622083176   -3.6200826269   -1.4470687241
S        4.7068686855   -6.1939204662   -0.3327524659
Cl      -0.1301936454   -0.1429944609    3.8622189781
H        2.6198543068    0.7009927028   -0.0305590197
H        2.6256988164   -3.3709227888    1.4775978432
H        1.0940774151    1.3208685027    1.7225676223
H        1.0769352095   -2.6755272810    3.2351125172
H        5.7659913851   -8.3988206602   -0.9344767090
H        6.8061088063   -7.7880204061   -4.0159885642
H        8.1570368093   -6.8237000978   -3.3732971301
H        7.7159653660   -8.3607520933   -2.5951740929
H        5.3424007339   -0.8412004503   -1.4925894266
H        3.9955260812   -1.2687612226   -2.5628412820
H        3.8688802367    0.1214716499   -1.4964112653
H        5.4044343655   -3.0752626086   -2.1802589394
29   

C        2.0925954732   -0.1962426710    0.4886399674
C        2.4668746284   -2.2661810889    1.6564322928
C        1.1488492438    0.1705599234    1.4567334754
C        1.5229334609   -1.8942729854    2.6199457646
C        5.6645455925   -7.3364673291   -1.2462698991
C        2.7776713247   -1.4210588956    0.5685505681
C        0.8562069318   -0.6718418280    2.5308027967
C        6.3511213318   -6.7159646997   -2.2555288097
C        5.3417866773   -4.9356167217   -1.4214182318
C        3.7812420112   -1.8232405119   -0.4427294970
C        7.2730064832   -7.4474614807   -3.1809685893
C        4.3652058702   -0.8227846618   -1.4131727084
N        6.1714951597   -5.3419827464   -2.3445191949
N        4.1400034649   -3.0910357997   -0.4716585466
N        5.0327057511   -3.5830407929   -1.3816857062
S        4.7165467999   -6.1833157206   -0.3480334048
Cl      -0.3226923243   -0.2084314301    3.7327473200
H        2.2504469806    0.4941741379   -0.3297677801
H        2.9625211376   -3.2255322227    1.7655970672
H        0.6298415934    1.1184144565    1.3742023916
H        1.3043580841   -2.5612381802    3.4457283348
H        5.7061210665   -8.3965003627   -1.0315374409
H        6.7408023913   -7.7072817153   -4.1001258914
H        8.1280075215   -6.8137841633   -3.4329222132
H        7.6397967783   -8.3632394170   -2.7088810246
H        5.4492649665   -0.9527138450   -1.4782518770
H        3.9345350873   -0.9776346167   -2.4065646527
H        4.1939739180    0.2087639880   -1.1022017701
H        5.4796485789   -3.0279493858   -2.1042047560
29   

C        1.9062605249   -0.2971349334    0.3442880173
C        2.5587342807   -2.1515668557    1.7354613811
C        0.9401404170    0.0660540495    1.2910147624
C        1.5915357707   -1.7842901566    2.6778826690
C        5.6943919256   -7.3025135635   -1.2522839474
C        2.7426732884   -1.4071612947    0.5531882423
C        0.7752825984   -0.6709649655    2.4663841957
C        6.3757615306   -6.6720120819   -2.2588805216
C        5.3227437058   -4.9097420906   -1.4403187292
C        3.7547389855   -1.8085589353   -0.4487221090
C        7.2616893085   -7.4002539696   -3.2213349310
C        4.4070082073   -0.7809911037   -1.3451221020
N        6.1544325498   -5.3054620537   -2.3662760560
N        4.0848367926   -3.0821175831   -0.5030804418
N        4.9943471023   -3.5616627123   -1.4028357561
S        4.7266584540   -6.1632547751   -0.3572901167
Cl      -0.4320444542   -0.2144723263    3.6424698804
H        1.9797921811    0.2922084768   -0.5620272185
H        3.1733624633   -3.0251596219    1.9281872469
H        0.3041226054    0.9253663387    1.1131802249
H        1.4699078969   -2.3698446472    3.5816754467
H        5.7421860128   -8.3635942523   -1.0441265243
H        7.1820055549   -6.9495631355   -4.2146546541
H        8.3002334020   -7.3377008260   -2.8852761633
H        6.9694466757   -8.4520679916   -3.2877493531
H        5.4952833607   -0.8794424031   -1.2947410758
H        4.0875746688   -0.9355348536   -2.3796956078
H        4.1553452037    0.2375854253   -1.0409262045
H        5.4501022003   -2.9976996101   -2.1129274305
29   

C        1.7822378618   -0.4242069420    0.2297570962
C        2.6825362291   -2.0069472027    1.8089870507
C        0.7984203025   -0.0631340137    1.1586213246
C        1.6969960865   -1.6428081623    2.7338094563
C        5.5957493507   -7.3205983032   -1.3386844756
C        2.7515270176   -1.3907701377    0.5467547359
C        0.7485651646   -0.6655310431    2.4191975343
C        6.3386490066   -6.6764421043   -2.2916422142
C        5.2940344581   -4.9138992814   -1.4629297050
C        3.7694402211   -1.8021769389   -0.4472620673
C        7.2489199330   -7.3969391717   -3.2370589062
C        4.4936446477   -0.7595532068   -1.2687349946
N        6.1572909908   -5.3016763702   -2.3630274731
N        4.0648229225   -3.0820501026   -0.5215237985
N        4.9994707753   -3.5591507013   -1.3963171664
S        4.6172128371   -6.1852122689   -0.4505302563
Cl      -0.4809413324   -0.2134480464    3.5738071238
H        1.7816368058    0.0487056540   -0.7458911725
H        3.4004251910   -2.7775597385    2.0711726206
H        0.0598011199    0.6870638077    0.9013823123
H        1.6624527025   -2.1256466969    3.7034259222
H        5.6066262557   -8.3887832813   -1.1644573701
H        7.2327952897   -6.9075927026   -4.2150366169
H        8.2708065991   -7.3805652461   -2.8485973969
H        6.9282692580   -8.4355333240   -3.3580176466
H        5.5727183678   -0.8433378513   -1.1101467046
H        4.2798443663   -0.9084271880   -2.3309699619
H        4.1836769313    0.2489953521   -0.9822119201
H        5.5038364661   -2.9859878775   -2.0649905859
29   

C        1.6701449596   -0.5938102025    0.1485782222
C        2.8018908260   -1.8299771213    1.8820709280
C        0.6675391323   -0.2399997768    1.0598886786
C        1.7972498329   -1.4741868224    2.7896580686
C        5.4980888491   -7.3301172876   -1.4350158620
C        2.7624172527   -1.3778752743    0.5533502181
C        0.7237099401   -0.6728374792    2.3886292158
C        6.3005989122   -6.6757690594   -2.3309519742
C        5.2752797846   -4.9120442210   -1.4808761065
C        3.8015750236   -1.7925242901   -0.4233856540
C        7.2275519401   -7.3903092737   -3.2645900662
C        4.5946035282   -0.7368428138   -1.1611385888
N        6.1645859698   -5.2941750380   -2.3577704484
N        4.0598470709   -3.0770638854   -0.5280955412
N        5.0191053977   -3.5518100794   -1.3769463538
S        4.5172038817   -6.1971125459   -0.5464848426
Cl      -0.5290014737   -0.2308521234    3.5220081696
H        1.5961983636   -0.2595151587   -0.8803628191
H        3.6182049249   -2.4673437405    2.2060116130
H       -0.1674320756    0.3706410748    0.7367093210
H        1.8445726744   -1.8272465512    3.8131688795
H        5.4686125207   -8.4037448613   -1.3010865853
H        7.2700080287   -6.8638127019   -4.2222751975
H        8.2314693665   -7.4236293858   -2.8327998335
H        6.8789152443   -8.4119787702   -3.4400294209
H        5.6568856538   -0.8298470197   -0.9174377034
H        4.4661280892   -0.8597804513   -2.2402642756
H        4.2578311049    0.2641455661   -0.8767883875
H        5.5709069520   -2.9714922409   -2.0004584103
29   

C        1.5738173093   -0.8245973682    0.0642534545
C        2.8960579120   -1.5910436604    1.9289736256
C        0.5489452413   -0.4577133375    0.9451080259
C        1.8693021217   -1.2230837194    2.8066391568
C        5.3807897814   -7.3487896355   -1.5741886011
C        2.7670216958   -1.3807728306    0.5480870660
C        0.6885464053   -0.6495963273    2.3236812294
C        6.2482578831   -6.6875507995   -2.4018952751
C        5.2508410141   -4.9241083468   -1.5185785278
C        3.8483878308   -1.7989052280   -0.3897328649
C        7.1901600348   -7.3961227202   -3.3250619874
C        4.7045268840   -0.7374621044   -1.0444716605
N        6.1654775678   -5.3018025394   -2.3710638182
N        4.0595213477   -3.0862685563   -0.5413972125
N        5.0409604058   -3.5606371223   -1.3646102558
S        4.4021941074   -6.2184658220   -0.6798158502
Cl      -0.5909638385   -0.1908514229    3.4198496812
H        1.4409557910   -0.6795443477   -1.0022273712
H        3.7992581031   -2.0493925178    2.3176743984
H       -0.3669528898   -0.0247608920    0.5601799408
H        1.9835365907   -1.3879315766    3.8716491103
H        5.3049316604   -8.4252766794   -1.4911725033
H        7.2946616363   -6.8311223132   -4.2556590188
H        8.1717042709   -7.4859337432   -2.8518883030
H        6.8132757325   -8.3953994372   -3.5607558472
H        5.7484449727   -0.8611634583   -0.7422921937
H        4.6373770859   -0.8220032884   -2.1327937682
H        4.3676283965    0.2596222942   -0.7463307338
H        5.6443848529   -2.9758284880   -1.9337182105
29   

C        1.5613619961   -1.0618340796    0.1393338493
C        3.0559517698   -1.2965627023    2.0167032337
C        0.5459877842   -0.6348010290    1.0038645180
C        2.0387860854   -0.8683149482    2.8782272488
C        5.0980144833   -7.3557204668   -1.8985234310
C        2.8286965820   -1.3933844943    0.6363144241
C        0.7758178142   -0.5314215373    2.3799578530
C        6.1297754698   -6.7054863205   -2.5210627133
C        5.1477885783   -4.9439195936   -1.6169008530
C        3.9189654320   -1.8241890141   -0.2901936870
C        7.1957109845   -7.4211582876   -3.2912795103
C        4.8340175014   -0.7719456378   -0.8776584857
N        6.1573602836   -5.3276668052   -2.3514124812
N        4.0389012736   -3.1070737022   -0.5424130058
N        5.0280774276   -3.5863675276   -1.3536541663
S        4.0753885310   -6.2229945809   -1.0578263788
Cl      -0.4904169102    0.0060063211    3.4555911213
H        1.3645447137   -1.1406126015   -0.9243769188
H        4.0282409470   -1.5581643516    2.4199318618
H       -0.4307867916   -0.3819190044    0.6083348547
H        2.2259890337   -0.7966830625    3.9432745016
H        4.9412155405   -8.4264776405   -1.9173309896
H        6.9518004784   -7.4078538492   -4.3569870078
H        8.1592232719   -6.9259013469   -3.1411691721
H        7.2775027574   -8.4587929693   -2.9554786920
H        5.8671222020   -0.9629823221   -0.5737130815
H        4.7750411294   -0.7935826699   -1.9695988946
H        4.5418005303    0.2225967929   -0.5281305081
H        5.7462871142   -3.0115604332   -1.7823676899
29   

C        1.5517503003   -1.4138460068    0.2083646926
C        3.0728663868   -0.9857345958    2.0305952011
C        0.4850260544   -0.9638227391    0.9957100049
C        2.0035541236   -0.5354354475    2.8143771509
C        5.0102318399   -7.3236436110   -2.0635090981
C        2.8566745827   -1.4376884628    0.7203230245
C        0.7008078229   -0.5202436419    2.3047955006
C        6.0851632678   -6.6792791778   -2.6150359607
C        5.1466524492   -4.9379806022   -1.6292078614
C        3.9945139527   -1.8595807158   -0.1449185505
C        7.1449398648   -7.3900311334   -3.3981468184
C        4.9367950362   -0.8033812494   -0.6791110319
N        6.1619435709   -5.3168714728   -2.3582864779
N        4.0750222977   -3.1281624087   -0.4750392242
N        5.0717691848   -3.5957149395   -1.2837765661
S        4.0076761870   -6.2037045604   -1.1825502162
Cl      -0.6302763451    0.0452586814    3.2833561552
H        1.3683328652   -1.7537988530   -0.8054514030
H        4.0763599450   -0.9861258038    2.4418090373
H       -0.5202697167   -0.9567415620    0.5909758377
H        2.1809844537   -0.1924909073    3.8270133545
H        4.8125014238   -8.3839715517   -2.1533588867
H        6.9244058610   -7.3174234487   -4.4665545423
H        8.1198042836   -6.9334944268   -3.2047983316
H        7.1875422017   -8.4447489839   -3.1119833247
H        5.9602377324   -1.0202849720   -0.3603421864
H        4.9007392633   -0.7893969638   -1.7722193106
H        4.6525231751    0.1846050915   -0.3054064493
H        5.8248629545   -3.0247734520   -1.6537764031
29   

C        1.5734138330   -1.6549796411    0.2956960588
C        3.0682197876   -0.7390763408    1.9523114421
C        0.4762407966   -1.2073433862    1.0412583219
C        1.9678307340   -0.2926493916    2.6941781910
C        4.9255010375   -7.2831941047   -2.1777361140
C        2.8841721437   -1.4364733401    0.7476348019
C        0.6628891745   -0.5229894036    2.2466278091
C        6.0457983228   -6.6619543121   -2.6613795730
C        5.1360191829   -4.9230306833   -1.6449826726
C        4.0419314028   -1.8614908119   -0.0795509985
C        7.1081566412   -7.3843867917   -3.4301611455
C        5.0412538034   -0.8269699491   -0.5473965324
N        6.1644853434   -5.3143849408   -2.3484905017
N        4.0886274663   -3.1183144846   -0.4612756825
N        5.0981419109   -3.5930113250   -1.2498377866
S        3.9319158614   -6.1580789369   -1.2931896755
Cl      -0.7069770028    0.0369496401    3.1735055168
H        1.4101552147   -2.1825413742   -0.6384544120
H        4.0708388378   -0.5458064906    2.3175016932
H       -0.5303465238   -1.3905675194    0.6839310074
H        2.1223031672    0.2388487719    3.6259450924
H        4.6911171155   -8.3306831403   -2.3166932138
H        6.9329056889   -7.2639633050   -4.5026307026
H        8.0911406174   -6.9737797492   -3.1825350879
H        7.0996230013   -8.4497658822   -3.1831309508
H        6.0403885784   -1.0822530262   -0.1831373008
H        5.0601208578   -0.7939856035   -1.6405764779
H        4.7715722058    0.1650091607   -0.1740086031
H        5.8875884544   -3.0387841136   -1.5654958059
29   

C        1.6171136347   -1.8208713071    0.4035976886
C        3.0579052759   -0.5359573707    1.8494938114
C        0.5033641598   -1.3876449042    1.1327348481
C        1.9401788260   -0.1056697641    2.5747419507
C        4.8423400793   -7.2310523571   -2.2728711514
C        2.9136934256   -1.4067286714    0.7549840386
C        0.6540277990   -0.5269163832    2.2240145200
C        6.0044576152   -6.6421855346   -2.6943984539
C        5.1260483441   -4.8984197910   -1.6589170292
C        4.0806579251   -1.8407763793   -0.0473040898
C        7.0655739209   -7.3840667148   -3.4461793970
C        5.1489215952   -0.8440212651   -0.4366326053
N        6.1647394699   -5.3106445647   -2.3348917706
N        4.1002537883   -3.0879928769   -0.4655427265
N        5.1240301671   -3.5801206521   -1.2246321426
S        3.8608483533   -6.0929616031   -1.3914274750
Cl      -0.7370317579    0.0126098508    3.1312377429
H        1.4747158583   -2.4879180682   -0.4406533943
H        4.0425901280   -0.1951862557    2.1492186187
H       -0.4885758791   -1.7212930579    0.8512978025
H        2.0666565988    0.5609437486    3.4198375463
H        4.5718427308   -8.2633453708   -2.4536909784
H        6.9368920550   -7.2229672444   -4.5199178637
H        8.0541112021   -7.0228128377   -3.1487680158
H        7.0042385669   -8.4553615311   -3.2347858957
H        6.1084401563   -1.1385276918   -0.0021189098
H        5.2491863275   -0.8111759106   -1.5254091551
H        4.8944256690    0.1601350085   -0.0871688823
H        5.9468900162   -3.0488762130   -1.4905473174
29   

C        1.6594230187   -1.9602811568    0.5259989799
C        3.0173077100   -0.3782157831    1.7371778356
C        0.5368701082   -1.5500389342    1.2546898021
C        1.8899755791    0.0272614278    2.4618523204
C        4.7743474476   -7.1698374897   -2.3785901321
C        2.9227413522   -1.3801659598    0.7512358250
C        0.6406758408   -0.5525887163    2.2273059353
C        5.9783884133   -6.6169727411   -2.7244999388
C        5.1162295602   -4.8673920706   -1.6851915563
C        4.0968534930   -1.8178811448   -0.0356499507
C        7.0469742454   -7.3803376685   -3.4434642071
C        5.2280385839   -0.8607286212   -0.3340763512
N        6.1714123914   -5.3028554401   -2.3197424548
N        4.0993971549   -3.0537116695   -0.4903713588
N        5.1410139890   -3.5621220778   -1.2137358404
S        3.7939113058   -6.0172297948   -1.5150750852
Cl      -0.7616198087   -0.0432005598    3.1346674452
H        1.5424321631   -2.7376234037   -0.2224222395
H        3.9689695881    0.0873837894    1.9649251730
H       -0.4259048493   -2.0101908657    1.0654448381
H        1.9813160003    0.7974176795    3.2188854907
H        4.4736804270   -8.1852368247   -2.6023634012
H        6.9856649580   -7.1777677065   -4.5161388106
H        8.0319047382   -7.0740001217   -3.0798409720
H        6.9278892171   -8.4542839960   -3.2743868625
H        6.1326232924   -1.1807063936    0.1909080349
H        5.4312010078   -0.8473746188   -1.4088459366
H        4.9818517875    0.1599970776   -0.0325205738
H        5.9961234313   -3.0561304592   -1.4205284000
29   

C        1.7214130773   -2.0872880607    0.6633168289
C        2.9513579611   -0.2405518833    1.6045993007
C        0.5890984991   -1.6980260712    1.3881859785
C        1.8135301668    0.1417625572    2.3254978645
C        4.7135860986   -7.1100786634   -2.4872875873
C        2.9282127725   -1.3613675554    0.7464252832
C        0.6228608955   -0.5798036810    2.2229658965
C        5.9543877645   -6.5967023227   -2.7555472891
C        5.1062772682   -4.8411714653   -1.7148247866
C        4.1126750862   -1.8012238488   -0.0246090483
C        7.0296613857   -7.3831419859   -3.4387718627
C        5.3029071174   -0.8940093406   -0.2340282901
N        6.1758681077   -5.3018359698   -2.3058938711
N        4.0993668355   -3.0234977721   -0.5179875795
N        5.1555760193   -3.5506496303   -1.2062890290
S        3.7339787441   -5.9418776167   -1.6439897536
Cl      -0.7918545527   -0.0974033887    3.1258030200
H        1.6455108851   -2.9639120727    0.0279608010
H        3.8498928776    0.3460391555    1.7471649737
H       -0.3271726872   -2.2705487499    1.3034868063
H        1.8521557013    1.0056978904    2.9787549037
H        4.3865278792   -8.1067693421   -2.7540458894
H        7.0383075984   -7.1450315821   -4.5058431691
H        8.0040115865   -7.1311035044   -3.0106611277
H        6.8566996720   -8.4556461421   -3.3124813570
H        6.1480235135   -1.2494606124    0.3624249095
H        5.5929858677   -0.8972971528   -1.2887366459
H        5.0870948585    0.1419104987    0.0314589179
H        6.0390905070   -3.0734755714   -1.3535017881
29   

C        1.8203703882   -2.2238510969    0.9047885438
C        2.8406268840   -0.1130903589    1.4470339745
C        0.6603805033   -1.8349828375    1.5842571557
C        1.6755764108    0.2672310635    2.1245425104
C        4.7058979999   -7.0544326824   -2.5561761185
C        2.9452913146   -1.3747898125    0.8137165683
C        0.5759795083   -0.5869857364    2.1998977750
C        5.9608087239   -6.5557516065   -2.7834051275
C        5.1312310193   -4.8288865096   -1.6816313220
C        4.1542549362   -1.8260670897    0.0859375352
C        7.0302698618   -7.3335019551   -3.4854206039
C        5.3867781581   -0.9620058969   -0.0444295951
N        6.2010800773   -5.2863611354   -2.2746738742
N        4.1309584282   -3.0313629378   -0.4486454244
N        5.1968600511   -3.5612886115   -1.1201094943
S        3.7364869734   -5.9033663163   -1.6782293464
Cl      -0.8727702258   -0.1042089922    3.0468348747
H        1.8260229810   -3.2072334436    0.4458977056
H        3.6422934826    0.6112282284    1.4424858354
H       -0.1856371477   -2.5104416095    1.6346002450
H        1.6205295624    1.2392662627    2.6007867611
H        4.3630609350   -8.0315124642   -2.8712971990
H        7.0575352000   -7.0511987394   -4.5413622387
H        8.0033899713   -7.1182868125   -3.0350169722
H        6.8355665023   -8.4068072990   -3.4065766976
H        6.2345801033   -1.4616041623    0.4333520668
H        5.6224858512   -0.8206757531   -1.1033125376
H        5.2871996860    0.0249619021    0.4015205145
H        6.0899479786   -3.0938307508   -1.2377616240
