30

C      1.98493    0.50307   -4.65987
C      1.95988    1.21820   -6.82323
C      0.72892    1.07673   -4.45141
C      0.69392    1.80629   -6.59319
C      0.03209    1.03805   -3.12086
C      0.15211   -1.00488    0.03796
C     -0.52093    1.02557   -0.20614
C     -0.48894   -0.21289   -1.12550
C      0.69891    0.55857    2.06793
C      0.78681   -0.50208    3.15367
N      2.59902    0.57652   -5.85170
N      0.08614    1.74171   -5.42631
N      0.31743   -0.06935   -2.31814
N     -0.25193    0.10917    1.00453
O     -0.70136    1.92852   -2.71597
F     -0.52380   -0.80327    3.54863
Cl    -0.09781    2.64889   -7.88935
H      2.53053    0.00357   -3.86247
H      2.43812    1.28117   -7.79743
H     -0.26139   -1.97461    0.31334
H      1.24048   -1.04169   -0.02251
H      0.33285    1.68797   -0.33524
H     -1.44582    1.59029   -0.11869
H     -1.50347   -0.56217   -1.34801
H      0.30368    1.49595    2.46757
H      1.67160    0.74576    1.60756
H      1.33785   -0.12406    4.01740
H      1.24712   -1.42876    2.79941
H      0.56440   -0.92894   -2.79952
H     -1.12987   -0.14026    1.47356
