29

C      3.58504   -2.23993    4.03238
C      4.46039    0.29018    3.84190
C      3.00122   -1.32780    3.14785
C      5.03428   -0.64433    4.72157
C      1.85203   -1.76212    2.27347
C     -0.90648   -0.02375    0.74186
C      0.46840   -0.29243   -0.83723
C      0.28802   -0.99574    0.53173
C     -1.28253    1.49608   -1.21308
C     -0.60447    2.45893   -2.17175
N      3.44457   -0.06225    3.05891
N      4.61018   -1.89197    4.82329
N     -0.35117    0.83604   -0.32880
N      1.39239   -0.79346    1.44097
O      1.40595   -2.90997    2.33884
F      0.32518    1.79215   -2.94602
F      0.06425    3.44837   -1.49872
Cl     6.37121   -0.14624    5.73241
H      3.21516   -3.25854    4.09517
H      4.82908    1.31067    3.78099
H     -1.86310   -0.49962    0.47147
H     -0.99791    0.45755    1.72115
H      1.48449   -0.02537   -1.13958
H     -0.01860   -0.85035   -1.65211
H      0.05534   -2.05841    0.52222
H     -1.98760    2.08177   -0.61281
H     -1.87463    0.78694   -1.82400
H     -1.31353    2.93784   -2.85511
H      1.83063    0.12050    1.50398
