71

C      1.01366   -2.14802   -1.37997
C      5.97198   -0.93871   -4.75706
C      1.71443   -2.27950   -2.57819
C      0.01434   -1.17963   -1.24724
C      4.74038   -1.48863   -5.15503
C      0.39680   -0.51092   -3.57343
C      6.01818    0.07291   -3.79667
C      1.43197   -1.45114   -3.67744
C     -0.28157   -0.38059   -2.35716
C      4.77465    0.56246   -3.32000
C      3.58491   -0.97754   -4.57618
C      7.21758    1.64827   -2.37993
C      3.38020    2.03693   -0.30139
C      2.82306    3.21287   -2.42789
C     -3.39948   -0.46700   -0.94477
C     -3.49269   -0.27486   -3.40468
C      1.90215    2.01857    0.09029
C      1.34390    3.23062   -2.06784
C     -4.91949   -0.63006   -0.96195
C     -5.00646   -0.45683   -3.29837
C      5.92045    2.46114   -2.33242
C      3.46009    1.94926   -1.82890
C      5.96891    3.49803   -3.47481
C      8.46474   -0.17487   -3.44619
C      1.23045    4.43693    0.12668
N      3.61737    0.05020   -3.71904
N      7.21037    0.54586   -3.21612
N      4.75963    1.56885   -2.36230
N     -3.01761    0.32561   -2.13490
N      2.28111   -1.54233   -4.81346
N      1.09121    3.12151   -0.57238
O      8.21090    2.02233   -1.76987
O     -1.23290    1.54063   -0.83515
O     -1.36719    1.80235   -3.35742
O     -5.35568   -1.24553   -2.16683
S     -1.47723    0.94498   -2.17465
H      1.25187   -2.79486   -0.54041
H      6.88936   -1.35031   -5.16273
H      2.50950   -3.01305   -2.67309
H     -0.50190   -1.03729   -0.30399
H      4.69548   -2.31836   -5.85164
H      0.17512    0.16751   -4.39158
H      3.89166    2.92128    0.09539
H      3.84939    1.16041    0.15492
H      2.88466    3.19013   -3.51913
H      3.32991    4.12240   -2.08859
H     -3.08671    0.07132   -0.04875
H     -2.92462   -1.45753   -0.97000
H     -3.00843   -1.24633   -3.57531
H     -3.25351    0.40323   -4.22517
H      1.43965    1.08343   -0.23227
H      1.74963    2.12278    1.16632
H      0.83048    4.13171   -2.40753
H      0.84581    2.37934   -2.52652
H     -5.22966   -1.28350   -0.14361
H     -5.39723    0.35235   -0.83799
H     -5.49216    0.52769   -3.24212
H     -5.37660   -0.98717   -4.17823
H      5.93798    2.97251   -1.36841
H      2.81556    1.12027   -2.12499
H      5.90447    3.00299   -4.44853
H      6.91207    4.04909   -3.42800
H      5.15274    4.21895   -3.40079
H      8.77188   -0.08797   -4.49319
H      8.34484   -1.23128   -3.18901
H      9.22815    0.27131   -2.81227
H      2.25910    4.78579    0.04703
H      0.55794    5.15634   -0.34099
H      0.96267    4.31026    1.17597
H      1.85391   -1.18189   -5.66295
H      0.10627    2.80174   -0.50001
