18   
Generated by ForceBalance from scan.xyz: Frame 1 of 24
C        5.7969711967    0.7110596541   -0.5396021573
C        5.7071833220    1.3110701335    0.7192997284
C        4.7031007838   -0.0099445535   -1.0195224626
C        4.5214214924    1.1628913500    1.4464600902
C        3.5621836357   -0.0997449008   -0.2162691470
C        2.3738508685   -0.8931468033   -0.7158079170
C        0.1979173892   -1.8091067975   -0.0150162229
N        3.4670242917    0.4735271750    0.9955776478
N        1.3004462068   -0.8706163940    0.1186556336
O        2.4190107702   -1.5070388126   -1.7848437304
H        6.7021575334    0.8038746381   -1.1340894789
H        6.5331141104    1.8812480374    1.1346476336
H        4.7035468271   -0.5032971384   -1.9855225610
H        4.4162294447    1.6156919531    2.4309939886
H       -0.7379961339   -1.3331134619    0.2913384079
H        0.3576494191   -2.7073698216    0.5950701624
H        0.1221523400   -2.1078507095   -1.0611321263
H        1.4580383612   -0.4039292551    1.0062678223
18   
Generated by ForceBalance from scan.xyz: Frame 2 of 24
C        5.7909489983    0.6570050808   -0.5195538263
C        5.7000514501    1.2417489202    0.7465913231
C        4.6749968760   -0.0017309750   -1.0362283688
C        4.4913518032    1.1416731197    1.4433534349
C        3.5125687728   -0.0495709201   -0.2600815154
C        2.3048421130   -0.7908448875   -0.7932466737
C        0.2415142185   -1.8315319006    0.0369060475
N        3.4161020124    0.5104298200    0.9577233468
N        1.2051049740   -0.7365289007    0.0154547625
O        2.3651910827   -1.4251357864   -1.8479934752
H        6.7135477403    0.7143779590   -1.0912996075
H        6.5426579129    1.7642353026    1.1902104672
H        4.6752854097   -0.4802699801   -2.0096541911
H        4.3843422600    1.5850296438    2.4319262027
H       -0.7321130933   -1.4636272271    0.3719037964
H        0.5686938269   -2.6391919217    0.7044673628
H        0.1414053127   -2.2304328787   -0.9730317284
H        1.3870536324   -0.2677090144    0.8990015277
18   
Generated by ForceBalance from scan.xyz: Frame 3 of 24
C        5.7747562298    0.5930595491   -0.4951605658
C        5.6754745388    1.1616989343    0.7777834920
C        4.6437947479   -0.0013291921   -1.0550139882
C        4.4429748863    1.1100328702    1.4368329318
C        3.4578146117   -0.0078920717   -0.3128169033
C        2.2327550979   -0.6918362729   -0.8837095401
C        0.3150081088   -1.8522642617    0.1032937047
N        3.3535312772    0.5382824904    0.9104737093
N        1.1136123822   -0.6396610718   -0.0877589677
O        2.3007660848   -1.3211013080   -1.9389963720
H        6.7154012462    0.6142990893   -1.0392945262
H        6.5289102807    1.6352767939    1.2543912868
H        4.6502802407   -0.4625758464   -2.0366723759
H        4.3276204653    1.5437707344    2.4286823001
H       -0.6726765889   -1.5854005546    0.4882731313
H        0.7998587721   -2.5432430827    0.8052584730
H        0.1931256703   -2.3528757316   -0.8579491084
H        1.3077397210   -0.1373721531    0.7762015492
18   
Generated by ForceBalance from scan.xyz: Frame 4 of 24
C        5.7447391301    0.5224879170   -0.4717189984
C        5.6311649610    1.0721647789    0.8085034552
C        4.6068850067   -0.0121443634   -1.0755840455
C        4.3787832714    1.0629483782    1.4309612261
C        3.4005331329    0.0171851130   -0.3665755661
C        2.1672975805   -0.6121691042   -0.9822516745
C        0.4165016592   -1.8681828107    0.1658537293
N        3.2825342715    0.5467944189    0.8627790075
N        1.0258258761   -0.5810323401   -0.2001394034
O        2.2460659368   -1.2184294498   -2.0477738056
H        6.7012720880    0.5132377072   -0.9877547554
H        6.4895233614    1.4999795914    1.3183737287
H        4.6233593927   -0.4545296043   -2.0657615002
H        4.2522400695    1.4852381066    2.4263534080
H       -0.5610845157   -1.6879501676    0.6200538786
H        1.0447878914   -2.4246720698    0.8739834097
H        0.2760179559   -2.4696749911   -0.7334481963
H        1.2091199828   -0.0227406460    0.6326077562
18   
Generated by ForceBalance from scan.xyz: Frame 5 of 24
C        5.7275499848    0.4689898844   -0.4410309870
C        5.5946157746    0.9953793070    0.8471486905
C        4.5902229640   -0.0105353531   -1.0901773130
C        4.3242571221    1.0189599104    1.4317971352
C        3.3642902817    0.0466144082   -0.4163539871
C        2.1264941020   -0.5260691911   -1.0771018045
C        0.5610801817   -1.8423303023    0.2318613421
N        3.2281153810    0.5545342517    0.8203549244
N        0.9609048225   -0.5271585602   -0.3068421140
O        2.2112531335   -1.0872274529   -2.1633531004
H        6.6984087748    0.4358111004   -0.9285168246
H        6.4518334493    1.3809143589    1.3914968618
H        4.6218210117   -0.4307771137   -2.0895827309
H        4.1825309853    1.4254610186    2.4316853795
H       -0.4139464381   -1.7456971527    0.7159619128
H        1.2877430800   -2.2236474802    0.9620975186
H        0.4693331827   -2.5568102549   -0.5882195851
H        1.1203773545    0.0989014985    0.4830240977
18   
Generated by ForceBalance from scan.xyz: Frame 6 of 24
C        5.6916692018    0.4096859388   -0.4195570319
C        5.5379800717    0.9100208926    0.8766423812
C        4.5600817353   -0.0262765591   -1.1081467140
C        4.2537681845    0.9520246291    1.4295229918
C        3.3186049179    0.0463053053   -0.4642270533
C        2.0812503628   -0.4729562301   -1.1687263572
C        0.7111673733   -1.8079100161    0.3011082325
N        3.1625951191    0.5289479034    0.7804508299
N        0.8921473996   -0.5197778534   -0.4088932740
O        2.1694061762   -0.9620556501   -2.2851878389
H        6.6737071787    0.3634644975   -0.8829643901
H        6.3899910204    1.2617977011    1.4512139888
H        4.6080761206   -0.4228933395   -2.1165629685
H        4.0964419150    1.3396646625    2.4345594139
H       -0.2432566872   -1.7793368817    0.8326086899
H        1.5162945099   -2.0052546823    1.0223466802
H        0.6734319784   -2.6211651420   -0.4270330329
H        0.9959315720    0.1844325358    0.3239823898
18   
Generated by ForceBalance from scan.xyz: Frame 7 of 24
C        5.7427686337    0.4751969190   -0.5580623488
C        5.6073120061    0.8302762629    0.7859583559
C        4.6415483122   -0.0670266330   -1.2207962839
C        4.3711158248    0.6218246689    1.4088155708
C        3.4417155127   -0.2178612554   -0.5129990113
C        2.2398242306   -0.7576824709   -1.2514599691
C        0.7449547374   -1.6871520046    0.4945582512
N        3.3061801753    0.1108363872    0.7825803069
N        1.0104505008   -0.7154085259   -0.5861680664
O        2.3147753844   -1.0097520983   -2.4526808157
H        6.6867809040    0.6165446413   -1.0778887542
H        6.4354289041    1.2563141044    1.3453082664
H        4.6789759113   -0.3632692365   -2.2633193983
H        4.2330023529    0.8797687960    2.4578703381
H       -0.2448812976   -1.4820714585    0.9104368892
H        1.4827851754   -1.5581862938    1.2864630644
H        0.7721571552   -2.7228478149    0.1312346207
H        0.3117958986   -0.8444980430   -1.3183116985
18   
Generated by ForceBalance from scan.xyz: Frame 8 of 24
C        5.7394193931    0.4089742645   -0.5324330472
C        5.5935499803    0.7771551261    0.8071552074
C        4.6277264894   -0.0834268602   -1.2155288508
C        4.3368859841    0.6296748403    1.4044588725
C        3.4096425869   -0.1866180632   -0.5298660361
C        2.2045494664   -0.6713546306   -1.3042801788
C        0.8225167024   -1.6775575440    0.5277706486
N        3.2642087502    0.1566724237    0.7604679633
N        0.9961326645   -0.7904091314   -0.6350367421
O        2.2702990207   -0.7800370823   -2.5298214553
H        6.6987645299    0.5057171707   -1.0340942456
H        6.4285679020    1.1684165029    1.3814361857
H        4.6697169754   -0.3757120822   -2.2589261762
H        4.1870693924    0.9052283376    2.4473916228
H       -0.1866707693   -1.5354383928    0.9231593309
H        1.5370174358   -1.4069848195    1.3029557546
H        0.9514109849   -2.7342245648    0.2586411114
H        0.2902576274   -0.9780846967   -1.3449544587
18   
Generated by ForceBalance from scan.xyz: Frame 9 of 24
C        5.6626875851    0.2590871283   -0.6118998272
C        5.5071755831    0.6879941833    0.7086774315
C        4.5456434372   -0.2185231765   -1.2960707544
C        4.2357440772    0.6124504623    1.2862299619
C        3.3136559487   -0.2581027374   -0.6279890517
C        2.1102052878   -0.7295587612   -1.4149671952
C        0.7924808964   -1.7198251124    0.5041180243
N        3.1587625388    0.1460058717    0.6431436121
N        0.9263034731   -0.9786488681   -0.7566802255
O        2.1718842433   -0.7667479661   -2.6468979347
H        6.6333714768    0.3012411882   -1.0990962580
H        6.3456660489    1.0730007938    1.2820964969
H        4.5937502091   -0.5462936693   -2.3285452368
H        4.0757572804    0.9418103118    2.3118735418
H       -0.2465686632   -1.6470278941    0.8358939371
H        1.4310239706   -1.2730924920    1.2624378994
H        1.0487968094   -2.7809141426    0.3843001910
H        0.2288480336   -1.2377758487   -1.4499999086
18   
Generated by ForceBalance from scan.xyz: Frame 10 of 24
C        5.6340671529    0.2179608995   -0.7078961281
C        5.4760195570    0.5544554519    0.6394038653
C        4.5218768016   -0.2258481398   -1.4214169103
C        4.2068730585    0.4265143389    1.2120210529
C        3.2923253001   -0.3247219729   -0.7548313287
C        2.0947162506   -0.7710900010   -1.5616895091
C        0.7456903940   -1.5906709723    0.4460858550
N        3.1338545584   -0.0072546886    0.5396556412
N        0.9249580194   -1.0650539629   -0.9126312751
O        2.1608499133   -0.7887511881   -2.7951398914
H        6.6034559368    0.3044695277   -1.1918766815
H        6.3113424380    0.9092013773    1.2364949176
H        4.5701966838   -0.4859653534   -2.4729987624
H        4.0455191752    0.6843404014    2.2577851700
H       -0.1870231535   -2.1605766040    0.4606319623
H        0.6879842718   -0.7864587298    1.1809129913
H        1.5623685437   -2.2580196219    0.7329711591
H        0.2170596369   -1.3391878529   -1.5850727717
18   
Generated by ForceBalance from scan.xyz: Frame 11 of 24
C        5.6990863530    0.3496292336   -0.6249798550
C        5.5607808904    0.5849496364    0.7459740540
C        4.5808283048   -0.0577737192   -1.3500763153
C        4.3042063992    0.3963838737    1.3283167528
C        3.3649995906   -0.2276149718   -0.6717639861
C        2.1646936539   -0.6383625138   -1.4942590293
C        0.8045225677   -1.4971216599    0.5118745261
N        3.2256445424   -0.0057191863    0.6444843614
N        1.0290790446   -1.0686800901   -0.8698679684
O        2.2146090153   -0.5526933983   -2.7268179866
H        6.6581671923    0.4863387883   -1.1178744743
H        6.4014674143    0.9085642429    1.3531261422
H        4.6135328298   -0.2386685056   -2.4186320593
H        4.1570919916    0.5765400666    2.3922878555
H       -0.1202187589   -2.0800546609    0.5278273711
H        0.7060825168   -0.6464970755    1.1886304399
H        1.6187270372   -2.1281337517    0.8750589461
H        0.3137031372   -1.3081154473   -1.5464731144
18   
Generated by ForceBalance from scan.xyz: Frame 12 of 24
C        5.6933358500    0.3953018125   -0.6364987206
C        5.5694881646    0.5737333065    0.7445173144
C        4.5768310287   -0.0171135366   -1.3610609661
C        4.3284001335    0.3256569652    1.3368755822
C        3.3769539795   -0.2505094443   -0.6725999005
C        2.1812797809   -0.6729132156   -1.4965971608
C        0.7700114800   -1.4516980958    0.5201829437
N        3.2517681059   -0.0822121979    0.6529801658
N        1.0765850525   -1.1917556905   -0.8862078852
O        2.2228447081   -0.5578084603   -2.7275556487
H        6.6403544383    0.5791145762   -1.1373460129
H        6.4095869792    0.8989108479    1.3516364772
H        4.5986129171   -0.1570513091   -2.4359356869
H        4.1921377757    0.4606089061    2.4089707214
H       -0.1576055109   -2.0296737773    0.5483498553
H        0.6365645185   -0.5284972986    1.0885415211
H        1.5586327604   -2.0335472312    1.0000247085
H        0.3559036959   -1.4088159677   -1.5646417293
18   
Generated by ForceBalance from scan.xyz: Frame 13 of 24
C        5.5377246432    0.7295528344   -0.6391845056
C        5.5507440961    0.5717558197    0.7496907498
C        4.4651974363    0.2101423622   -1.3618136834
C        4.4820201531   -0.0982037363    1.3518948479
C        3.4356706339   -0.4375815096   -0.6636031983
C        2.3045947228   -1.0204857711   -1.4800774614
C        0.6462382233   -1.1119837817    0.4819789043
N        3.4403899243   -0.5906110736    0.6697778737
N        1.1518317835   -1.4079542294   -0.8594383766
O        2.4473898659   -1.1667728104   -2.6995588886
H        6.3503370414    1.2423004497   -1.1473225446
H        6.3670948387    0.9542118553    1.3558367509
H        4.4024332711    0.2793335091   -2.4420600110
H        4.4615335577   -0.2462521095    2.4306873570
H       -0.4344448712   -1.2771706422    0.4696114928
H        0.8348745147   -0.0734748294    0.7617991398
H        1.1007741513   -1.7554381900    1.2377900942
H        0.4895011660   -1.7833481915   -1.5282387227
18   
Generated by ForceBalance from scan.xyz: Frame 14 of 24
C        5.5203273037    0.7614477875   -0.7159652254
C        5.0835555090    1.7102261327    0.2127455479
C        4.7235546549   -0.3570893487   -0.9548013637
C        3.8622568244    1.4949912198    0.8585312455
C        3.5121124952   -0.4790582283   -0.2594823600
C        2.6865908453   -1.7205898896   -0.5081096593
C        0.4735630321   -0.6903924347    0.2423730092
N        3.0842932958    0.4298561234    0.6306748102
N        1.4155476707   -1.7891424310   -0.0022548602
O        3.1927107462   -2.6841345856   -1.0924501706
H        6.4645315541    0.8899401177   -1.2388426643
H        5.6709711102    2.5962461230    0.4364399161
H        5.0108160504   -1.1396204686   -1.6483001574
H        3.4928395038    2.2105292723    1.5917875516
H       -0.5379977350   -1.0953903627    0.1546964238
H        0.5885757477    0.1123044459   -0.4905258431
H        0.6061963734   -0.2650546838    1.2381172631
H        0.9960855572   -2.6801008016   -0.2445213461
18   
Generated by ForceBalance from scan.xyz: Frame 15 of 24
C        5.4656458991    0.7490851809   -0.7556875371
C        5.1150309887    1.6282591925    0.2719533632
C        4.6262220021   -0.3304012751   -1.0280873034
C        3.9318682966    1.3871601557    0.9776189151
C        3.4594900601   -0.4843044361   -0.2661298444
C        2.5983872949   -1.6960527247   -0.5491892412
C        0.3610771049   -0.7040190705    0.0916098628
N        3.1131310610    0.3608906652    0.7182199639
N        1.3496316690   -1.7879509678    0.0245145743
O        3.0740722632   -2.6377967783   -1.1892488732
H        6.3769291646    0.8993213940   -1.3287106933
H        5.7384013730    2.4809240770    0.5258812856
H        4.8511239681   -1.0607814037   -1.7973175965
H        3.6288090150    2.0486938274    1.7879027915
H       -0.4743594858   -1.0395112982    0.7117331376
H       -0.0239408142   -0.4392997632   -0.9021796748
H        0.8074572881    0.1721052041    0.5558442293
H        0.9460310752   -2.6828704770   -0.2410085158
18   
Generated by ForceBalance from scan.xyz: Frame 16 of 24
C        5.4884881154    0.7517050145   -0.7977107050
C        5.1380038376    1.7075863491    0.1587461360
C        4.6364264133   -0.3332019814   -1.0023782972
C        3.9427614845    1.5345073482    0.8652251599
C        3.4646145255   -0.4203114796   -0.2383286206
C        2.5828170237   -1.6328984131   -0.4373073536
C        0.3432605143   -0.7172816167    0.2168849239
N        3.1165746697    0.4996924535    0.6762256149
N        1.4142888168   -1.7246539531    0.3024806107
O        2.9950836211   -2.5831972532   -1.1044310818
H        6.4073456394    0.8491324693   -1.3700547791
H        5.7695749625    2.5689876972    0.3568505629
H        4.8549934427   -1.1160161899   -1.7202162483
H        3.6372643745    2.2607683577    1.6170898747
H       -0.1184684637   -0.6957646925   -0.7790647301
H        0.7462462838    0.2652628779    0.4553251055
H       -0.4237256026   -0.9643237716    0.9556209637
H        1.0433712846   -2.6608276620    0.1498704248
18   
Generated by ForceBalance from scan.xyz: Frame 17 of 24
C        5.5392474453    0.7320258796   -0.7632215941
C        5.1868092396    1.7006309948    0.1793359845
C        4.6578773703   -0.3230822862   -0.9995235725
C        3.9609122292    1.5700571945    0.8424394703
C        3.4630846907   -0.3737706164   -0.2692957834
C        2.5380485225   -1.5464815230   -0.4936889881
C        0.2954358519   -0.7766787451    0.2311005972
N        3.1115648982    0.5594940689    0.6309182581
N        1.4545156035   -1.6805807481    0.3802191938
O        2.8598894706   -2.4483567940   -1.2651360618
H        6.4800690957    0.7984996286   -1.3034010676
H        5.8393132149    2.5410112416    0.3987832733
H        4.8704141632   -1.1079269733   -1.7170617448
H        3.6510834931    2.3115912206    1.5774631536
H       -0.1879545738   -0.8871618961   -0.7484564604
H        0.6216756791    0.2549289242    0.3633390084
H       -0.4303554072   -1.0105619772    1.0142483935
H        1.1354083097   -2.6416425351    0.2563400699
18   
Generated by ForceBalance from scan.xyz: Frame 18 of 24
C        5.4588950241    0.8520889441   -0.7061413666
C        5.1791272406    1.6284217186    0.4221893065
C        4.6292804706   -0.2303347035   -0.9973459245
C        4.0768924709    1.2867037341    1.2127214186
C        3.5434421179   -0.4848923412   -0.1503971465
C        2.5939053932   -1.6205162693   -0.4755581775
C        0.2885380879   -0.9575630380   -0.2198433143
N        3.2700041010    0.2550432370    0.9378302658
N        1.4341200265   -1.7251296144    0.3229278935
O        2.7683956933   -2.3000608771   -1.4761680658
H        6.3080009710    1.0858608639   -1.3430480298
H        5.7975935406    2.4804538133    0.6892889366
H        4.7907938478   -0.8745113960   -1.8549386481
H        3.8321785466    1.8662883941    2.1011535036
H       -0.5752537326   -1.1185910434    0.4299017491
H        0.0417690360   -1.3305233468   -1.2163354382
H        0.4963042496    0.1198361640   -0.2780417722
H        1.6627015295   -1.2818189171    1.2145634626
18   
Generated by ForceBalance from scan.xyz: Frame 19 of 24
C        5.5277077830    0.8413848312   -0.6849029536
C        5.2809882568    1.6171908046    0.4515185713
C        4.6539864641   -0.2028868798   -0.9864509903
C        4.1663544571    1.3129161834    1.2396651112
C        3.5594058428   -0.4211582845   -0.1412035481
C        2.5624290721   -1.5097118708   -0.4844450808
C        0.1844306255   -1.0903317851   -0.2286939320
N        3.3178993397    0.3178593039    0.9549123692
N        1.4431375518   -1.6048851322    0.3461872494
O        2.6812183653   -2.1489377792   -1.5233621238
H        6.3852156584    1.0466043761   -1.3204163519
H        5.9339850440    2.4404310402    0.7265544699
H        4.7864766207   -0.8438364976   -1.8513521140
H        3.9458204610    1.8929884588    2.1340812619
H       -0.6363048354   -1.3152406145    0.4569812761
H       -0.0119855892   -1.5923607614   -1.1778070875
H        0.2244225951   -0.0054903278   -0.3965979364
H        1.6453035868   -1.0654140996    1.1884506890
18   
Generated by ForceBalance from scan.xyz: Frame 20 of 24
C        5.6041654456    0.8314273076   -0.6569392247
C        5.3863497840    1.6030200531    0.4881252793
C        4.6841360379   -0.1661425594   -0.9788756734
C        4.2526805776    1.3416613373    1.2643377718
C        3.5753681865   -0.3440501311   -0.1435447647
C        2.5344937231   -1.3826329724   -0.5091528841
C        0.1156211157   -1.2152205893   -0.2320669591
N        3.3607498600    0.3913682071    0.9604625257
N        1.4458051490   -1.4648628077    0.3424545354
O        2.6170384875   -1.9981964983   -1.5690131600
H        6.4749540338    1.0042953573   -1.2839739586
H        6.0754264624    2.3907387534    0.7787047098
H        4.7910907849   -0.8007966801   -1.8519163595
H        4.0525963461    1.9203111691    2.1644889154
H       -0.6507681901   -1.5023285287    0.4923447250
H       -0.0087808350   -1.8239088413   -1.1288578022
H       -0.0173579528   -0.1575785281   -0.4957985151
H        1.6121549658   -0.8583348944    1.1446732729
18   
Generated by ForceBalance from scan.xyz: Frame 21 of 24
C        5.6518566707    0.7969003075   -0.6363017027
C        5.4616185129    1.5679665114    0.5138992155
C        4.6821347858   -0.1452943614   -0.9793331945
C        4.3051992781    1.3614188115    1.2730056329
C        3.5564849551   -0.2723116478   -0.1582981401
C        2.4719207124   -1.2562867195   -0.5451483398
C        0.0468917392   -1.3320714488   -0.2153555335
N        3.3670691383    0.4635363080    0.9499658607
N        1.4086707457   -1.3190716972    0.3229872778
O        2.5277060438   -1.8630352732   -1.6143298938
H        6.5384989150    0.9280563242   -1.2511494692
H        6.1886285513    2.3141898289    0.8211146480
H        4.7637794572   -0.7757894367   -1.8581367981
H        4.1248348858    1.9427021667    2.1756469670
H       -0.6504075295   -1.6576611715    0.5608494182
H       -0.0012790208   -2.0353936515   -1.0475204133
H       -0.2516047348   -0.3379411848   -0.5731110473
H        1.5354833093   -0.6716400369    1.0982975976
18   
Generated by ForceBalance from scan.xyz: Frame 22 of 24
C        5.7319061698    0.7854329255   -0.5966017699
C        5.5542129624    1.5511951407    0.5589664530
C        4.7231951691   -0.1003774473   -0.9761903965
C        4.3702004809    1.3963442660    1.2873813505
C        3.5747624641   -0.1805705068   -0.1820753856
C        2.4569696365   -1.1120510719   -0.6007183648
C        0.0526694895   -1.4285744844   -0.2148388187
N        3.3959686320    0.5512686528    0.9307473322
N        1.4024659442   -1.1562965875    0.2667354187
O        2.5070113442   -1.7214830345   -1.6705477162
H        6.6388197456    0.8779148138   -1.1884904832
H        6.3112740366    2.2545908777    0.8934336225
H        4.7923837654   -0.7228021235   -1.8618263842
H        4.1976614575    1.9763472404    2.1924326360
H       -0.5541922499   -1.8443523829    0.5941139977
H        0.1096523061   -2.1560777687   -1.0251498895
H       -0.4287461006   -0.5170419712   -0.5921070040
H        1.4918851995   -0.4925635715    1.0316030760
18   
Generated by ForceBalance from scan.xyz: Frame 23 of 24
C        5.7752172858    0.7598779045   -0.5680976561
C        5.6100269805    1.5169238813    0.5948708267
C        4.7326708241   -0.0690331241   -0.9836993863
C        4.4033894410    1.4111472623    1.2945696803
C        3.5653958671   -0.1050330036   -0.2148323468
C        2.4188268494   -0.9861510157   -0.6622759642
C        0.0530085491   -1.4993956710   -0.2096365537
N        3.3975423938    0.6197051721    0.9044774089
N        1.3550575854   -0.9862559357    0.1847508516
O        2.4752939618   -1.6212864600   -1.7182820111
H        6.6985753385    0.8157042524   -1.1387850569
H        6.3933208720    2.1767321661    0.9566455720
H        4.7905850610   -0.6819814626   -1.8767219600
H        4.2392058314    1.9867471507    2.2040378316
H       -0.4515898091   -1.9435701334    0.6532097757
H        0.1991304640   -2.2650763824   -0.9723389880
H       -0.5825782143   -0.7072269362   -0.6256557145
H        1.4241822623   -0.3331339663    0.9587931205
18   
Generated by ForceBalance from scan.xyz: Frame 24 of 24
C        5.8176008074    0.8024638893   -0.5571368764
C        5.7307885586    1.3733960185    0.7153432466
C        4.7465713249    0.0408797435   -1.0260721075
C        4.5708527468    1.1564809686    1.4666204585
C        3.6309166265   -0.1171226025   -0.1985323670
C        2.4617962388   -0.9407979010   -0.6946331586
C        0.2159286851   -1.7666415021   -0.0800938600
N        3.5385162844    0.4280876298    1.0264131303
N        1.4357045094   -1.0270860688    0.1892241965
O        2.4794705865   -1.4701220280   -1.8094210546
H        6.7028530149    0.9486458393   -1.1706207791
H        6.5390656160    1.9739366116    1.1225495943
H        4.7449897207   -0.4313259284   -2.0025594675
H        4.4684253155    1.5858046765    2.4619229555
H       -0.6570001753   -1.1043342477   -0.0580318782
H        0.0719096562   -2.5656841245    0.6559950830
H        0.3006909129   -2.2093797094   -1.0731344110
H        1.5668644156   -0.5370256739    1.0677292014
