29

C      3.64646    3.69145   -0.02861
C      5.44894    4.58831    1.03859
C      4.06834    2.40322    0.31646
C      5.86237    3.28480    1.37548
C      3.32191    1.16620   -0.13603
C      0.41194   -0.66731    0.78401
C     -0.35772    0.50975   -0.79266
C      1.07987    0.16064   -0.34575
C     -2.09168   -0.51459    0.72031
C     -3.26662   -0.60841   -0.24283
N      4.33971    4.78364    0.33011
N      5.19622    2.20621    1.01993
N     -0.84144   -0.65081   -0.00621
N      1.95757    1.25382   -0.00171
O      3.90461    0.20333   -0.61599
F     -4.46481   -0.42741    0.46571
Cl     7.32783    3.07604    2.30899
H      2.75213    3.85162   -0.62589
H      6.02407    5.45855    1.34443
H      0.81330   -1.66129    1.00246
H      0.34080   -0.08424    1.71800
H     -0.68969    1.47695   -0.37352
H     -0.58340    0.48508   -1.86317
H      1.60313   -0.47372   -1.05856
H     -2.16268   -1.32810    1.45037
H     -2.15371    0.43933    1.27750
H     -3.30174   -1.58924   -0.72469
H     -3.22144    0.17140   -1.01072
H      1.58378    1.99380    0.58028
