51

C     -5.48647   -9.25200  -12.79385
C     -4.58607   -9.90390  -11.90938
C     -5.63904   -7.88246  -12.74495
C     -5.00677   -5.69927  -11.70559
C     -1.73000   -0.70361   -7.10393
C     -0.46062   -2.54112   -6.21533
C     -3.85371   -9.17937  -10.99228
C     -2.38590   -1.56854   -7.96914
C     -1.11180   -3.42743   -7.08499
C     -4.25333   -5.02315  -10.77212
C     -4.89784   -7.10965  -11.81026
C     -0.75050   -1.17242   -6.21016
C     -3.98994   -7.76638  -10.91897
C     -2.07905   -2.93975   -7.97006
C     -3.38165   -5.77007   -9.93514
C      1.18096    0.43669   -6.13633
C     -0.28532   -0.71189   -1.71054
C      1.20107   -0.31964   -1.74115
C     -0.55179   -1.33474   -3.10049
C      1.38519    0.20287   -3.17278
C      0.57126   -0.78863   -4.03519
C     -2.51204   -5.10678   -8.88911
C     -0.00180   -0.16518   -5.33662
N     -3.25002   -7.08226   -9.99872
O      1.40906    1.62928   -6.13143
O      1.97907   -0.42427   -6.79877
O     -0.87809    0.90402   -5.01372
O     -2.77885   -3.70695   -8.85834
H     -6.05499   -9.83943  -13.50983
H     -4.47640  -10.98412  -11.95931
H     -6.32734   -7.37834  -13.41979
H     -5.68605   -5.16295  -12.36481
H     -1.98196    0.35124   -7.09764
H      0.26076   -2.95766   -5.51884
H     -3.16068   -9.66012  -10.30805
H     -3.14559   -1.20499   -8.65514
H     -0.86221   -4.48134   -7.04679
H     -4.30988   -3.94691  -10.66154
H     -0.53497   -1.39075   -0.88924
H     -0.89503    0.19014   -1.58840
H      1.46862    0.42051   -0.98045
H      1.83069   -1.20389   -1.57731
H     -0.50533   -2.42714   -3.05515
H     -1.54255   -1.07116   -3.47603
H      0.95426    1.20630   -3.24802
H      2.43182    0.26951   -3.48443
H      1.24299   -1.60898   -4.30926
H     -2.72006   -5.55965   -7.91194
H     -1.45735   -5.28988   -9.13144
H      1.54558   -1.29897   -6.83105
H     -0.36481    1.72358   -5.15215
