55

C     -0.13979    1.56225   -2.32165
C     -1.45032    1.78308   -1.86162
C      0.71068    0.74348   -1.59016
C     -1.89918    1.20412   -0.67731
C      0.27560    0.14093   -0.39520
C     -1.03421    0.38762    0.06230
C      1.15652   -0.78831    0.34095
C     -0.53234   -0.57105    2.18711
C      0.50821   -1.50971    1.53468
C     -1.50415    3.79437    4.66366
C      1.51939   -5.33213    4.99430
C      1.32838   -6.61291    0.61008
C      0.04768    0.66339    2.88867
C      1.61001   -1.93022    2.52940
C     -0.25549   -2.73672    0.94333
C     -0.43579    2.81227    4.17106
C     -1.02781    1.63279    3.39108
C      1.12084   -2.86330    3.64584
C      0.65460   -3.86005    0.42232
O      2.30361   -1.03695   -0.01499
O      2.84943   -4.70770    2.78357
O      3.41846   -3.44693    4.92448
O     -0.35488   -5.45752    2.31008
O     -1.13093   -5.81344   -0.08796
O     -1.52181   -0.16594    1.20727
S      2.41470   -4.08154    4.05365
S     -0.05183   -5.48139    0.85768
H      0.19994    2.02415   -3.24392
H     -2.12337    2.41925   -2.43068
H      1.72405    0.53765   -1.92189
H     -2.90515    1.37419   -0.30549
H     -1.12184   -1.14256    2.91103
H     -2.06923    4.21591    3.82444
H     -1.05643    4.62700    5.21630
H     -2.22036    3.29865    5.32908
H      2.26221   -6.07909    5.28103
H      1.09394   -4.86471    5.88430
H      0.75311   -5.76079    4.34696
H      0.94234   -7.60935    0.83363
H      1.64351   -6.55639   -0.43344
H      2.12710   -6.33072    1.29731
H      0.64393    0.32151    3.74138
H      0.73863    1.19191    2.22128
H      2.07972   -1.04632    2.96125
H      2.40291   -2.41101    1.95632
H     -0.91897   -2.40562    0.14354
H     -0.91361   -3.12695    1.72406
H      0.13770    2.43361    5.02744
H      0.28294    3.34250    3.53266
H     -1.73905    1.09066    4.02935
H     -1.60721    2.01035    2.54194
H      0.89212   -2.33738    4.57608
H      0.26515   -3.47241    3.35315
H      0.76046   -3.84747   -0.66404
H      1.64504   -3.86088    0.87532
