55

C     -2.63904    0.08430    1.83874
C     -2.86428    1.18872    0.99633
C     -1.46281   -0.64172    1.71226
C     -1.91807    1.57077    0.04936
C     -0.49636   -0.28122    0.75285
C     -0.72782    0.84088   -0.06667
C      0.70652   -1.11350    0.55336
C      1.52926    0.78488   -0.81846
C      1.56588   -0.75628   -0.67338
C      3.33097    5.01435   -3.03276
C     -1.73530   -3.13521   -3.17963
C      6.35166   -0.90996   -0.64501
C      2.34224    1.37198   -1.96698
C      0.90756   -1.41573   -1.91775
C      2.99986   -1.29313   -0.49200
C      3.24544    3.48497   -3.07588
C      2.41977    2.90250   -1.92322
C      0.77914   -2.93494   -1.82925
C      3.79975   -0.59464    0.60530
O      0.97432   -2.07242    1.26949
O      0.57109   -2.93771   -4.49376
O      0.05772   -5.09342   -3.21477
O      6.07204   -0.63185    1.98030
O      5.28912   -2.80861    0.88067
O      0.17074    1.24859   -1.00449
S      0.00106   -3.62749   -3.32148
S      5.44011   -1.34518    0.85863
H     -3.38267   -0.19807    2.57797
H     -3.78407    1.76036    1.08904
H     -1.26123   -1.50888    2.33419
H     -2.07239    2.43073   -0.59543
H      1.87522    1.22336    0.12899
H      2.33453    5.46676   -3.09129
H      3.92381    5.40392   -3.86678
H      3.79696    5.35851   -2.10233
H     -2.23354   -3.56973   -4.04825
H     -2.15001   -3.54936   -2.25937
H     -1.81654   -2.04806   -3.20539
H      7.36262   -1.29293   -0.49341
H      5.89452   -1.39488   -1.50820
H      6.37385    0.17582   -0.75247
H      3.35577    0.95843   -1.93161
H      1.90498    1.05045   -2.91799
H      1.49836   -1.17300   -2.80400
H     -0.07696   -0.96492   -2.06776
H      3.52033   -1.22194   -1.45196
H      2.94471   -2.35015   -0.22795
H      4.25817    3.06043   -3.04994
H      2.80634    3.16833   -4.03077
H      2.85885    3.21641   -0.96587
H      1.40631    3.31727   -1.94931
H      1.74761   -3.44068   -1.79956
H      0.19393   -3.28323   -0.97511
H      3.99125    0.46589    0.42505
H      3.32046   -0.70260    1.58243
