40

C      6.09338   -1.49811   -5.17831
C      5.43805   -0.94680   -6.27316
C      5.50141   -1.53803   -3.90186
C      3.52182   -0.44703   -4.85094
C      4.14709   -0.42858   -6.10927
C      4.21771   -0.99511   -3.76589
C      6.28495   -2.16246   -2.73003
C     -0.52242   -0.53949   -2.10531
C     -1.32989   -1.55088   -2.97244
C     -0.11850    0.60877   -3.05931
C     -1.31495   -0.98112   -4.41449
C     -0.10264   -0.02991   -4.46078
C      4.48757    2.74019   -6.73952
C      1.17777   -0.80827   -4.73162
C      3.14641    2.06788   -7.01310
O      7.13671   -1.39746   -2.21817
O      5.97361   -3.35311   -2.49117
O      4.28440    0.29124   -8.64462
O      1.97744   -0.22200   -7.70488
O      2.28209    0.12931   -4.69983
S      3.33561    0.32794   -7.51045
Cl     3.44251   -0.96140   -2.18355
H      7.09700   -1.89891   -5.29132
H      5.90248   -0.89955   -7.25317
H     -1.10320   -0.17131   -1.25338
H      0.37184   -1.01720   -1.69645
H     -0.86030   -2.53898   -2.94324
H     -2.35418   -1.68015   -2.60763
H     -0.87504    1.40362   -3.03799
H      0.84390    1.05480   -2.79783
H     -1.26969   -1.76351   -5.17994
H     -2.22712   -0.40200   -4.60077
H     -0.20725    0.72006   -5.25254
H      5.00269    2.26487   -5.90033
H      5.13515    2.68829   -7.61855
H      4.32580    3.79324   -6.48550
H      1.14625   -1.26784   -5.72352
H      1.34834   -1.58182   -3.97530
H      2.61700    2.51917   -7.85832
H      2.49056    2.05217   -6.14118
