41

C      1.00260   -4.36808   -8.39565
C     -0.22888   -3.72391   -8.41401
C      1.86532   -4.27999   -7.28974
C      0.20880   -2.83993   -6.18638
C     -0.61608   -2.96383   -7.31272
C      1.44541   -3.51291   -6.18658
C      3.15966   -5.06481   -7.44599
C     -0.91181    1.75044   -2.35611
C     -1.14441    0.39917   -1.61532
C     -0.27014    1.38575   -3.71782
C     -0.53985   -0.68824   -2.52921
C     -0.64869   -0.08990   -3.94094
C     -4.53169   -2.21696   -5.91076
C      0.21255   -0.76088   -4.98731
C     -3.15851   -2.87788   -6.01877
O      3.26190   -5.91952   -8.29878
O     -2.01819   -0.69231   -7.07320
O     -2.84534   -2.51580   -8.64959
O      4.21441   -4.77107   -6.65799
O     -0.22516   -2.15567   -5.09323
S     -2.22038   -2.11910   -7.37714
Cl     2.38465   -3.37753   -4.70013
H      1.32651   -4.97265   -9.23520
H     -0.89572   -3.79985   -9.26700
H     -1.86200    2.27098   -2.50954
H     -0.27117    2.42789   -1.78430
H     -0.69618    0.38785   -0.61754
H     -2.21663    0.22205   -1.48098
H     -0.60324    2.03368   -4.53382
H      0.82237    1.47441   -3.65596
H      0.51984   -0.84525   -2.28800
H     -1.03916   -1.65648   -2.43452
H     -1.69024   -0.14136   -4.28248
H     -4.43537   -1.14860   -5.70279
H     -5.10692   -2.34523   -6.83075
H     -5.08595   -2.68041   -5.08942
H      1.26940   -0.75146   -4.69740
H      0.08732   -0.28786   -5.96381
H     -3.22552   -3.94112   -6.26364
H     -2.55420   -2.74031   -5.12066
H      3.98295   -4.10863   -5.98079
