16   

C        0.5783626217    0.8938930099    1.7719895526
C        0.3274766700    0.9100219567    3.1243086024
C       -0.2631492736    0.1660375741    0.9618870947
C       -4.2824630124   -1.9920298477    4.4775217563
C       -4.3393236508   -2.5958614340    3.2643959434
C       -1.4934568340   -0.4679937987    2.7986909337
C       -2.6556103790   -1.2100371894    3.3143732217
N       -0.6974701611    0.2388827399    3.6326956873
N       -1.2902884055   -0.5056209028    1.4705701510
N       -3.2196027328   -1.1199490757    4.4892672797
O       -3.3236444931   -2.1170953861    2.5094822054
H        1.4135407331    1.4404126459    1.3578350816
H        0.9724806503    1.4768393872    3.7860917783
H       -0.0876223436    0.1397441890   -0.1074983054
H       -4.9645045949   -2.1671430052    5.3013048173
H       -5.0701864010   -3.3323200745    2.9533437830
16   

C        0.5683262295    0.9093948577    1.7730030976
C        0.3745530742    0.8500853725    3.1336401898
C       -0.3193952340    0.2436085913    0.9585708655
C       -4.3410700338   -1.9172729193    4.4366253603
C       -4.2704507353   -2.6704750361    3.3105166533
C       -1.4777479449   -0.4832503314    2.8063988359
C       -2.6427222414   -1.2214117697    3.3261236023
N       -0.6390979584    0.1647271389    3.6459518132
N       -1.3356500983   -0.4417875513    1.4708379040
N       -3.3131256816   -1.0040693353    4.4248001171
O       -3.2075680701   -2.2467448308    2.5881575413
H        1.3943206636    1.4674366624    1.3558054220
H        1.0557714048    1.3685822955    3.7987516932
H       -0.1902676321    0.2791436268   -0.1171388671
H       -5.0880403859   -2.0167647359    5.2154751989
H       -4.9471389041   -3.4705986464    3.0363124809
16   

C        0.5522866727    0.9183291672    1.7806522910
C        0.4167579984    0.7809758561    3.1429564972
C       -0.3857876504    0.3219993615    0.9684252455
C       -4.4083183987   -1.8508768937    4.3885719149
C       -4.2109070548   -2.7380361357    3.3808086424
C       -1.4752862876   -0.4932138506    2.8191821012
C       -2.6448301174   -1.2267187641    3.3449546727
N       -0.5889586609    0.0864473797    3.6589945176
N       -1.3944189507   -0.3722256736    1.4839204559
N       -3.4176458492   -0.8981300261    4.3419975164
O       -3.1038193012   -2.3606192673    2.7000475559
H        1.3717746172    1.4838335655    1.3606696878
H        1.1379278461    1.2449270626    3.8062303483
H       -0.3034052318    0.4209697827   -0.1079161489
H       -5.2177901756   -1.8849244334    5.1083464378
H       -4.8317821860   -3.5973498914    3.1585568813
16   

C        0.5467295419    0.9278676864    1.7785233775
C        0.4647806401    0.7038202814    3.1339073057
C       -0.4454454729    0.4177166581    0.9713601321
C       -4.4791401915   -1.7900010140    4.3008907245
C       -4.1493809101   -2.7905276360    3.4448318447
C       -1.4813653195   -0.4822925105    2.8107191904
C       -2.6595605159   -1.2108311084    3.3375966994
N       -0.5417966685    0.0088524505    3.6482536073
N       -1.4549736009   -0.2768829486    1.4846615471
N       -3.5330299148   -0.7959078995    4.2082981269
O       -3.0024805684   -2.4435114966    2.8154787342
H        1.3667535691    1.4938197326    1.3601793980
H        1.2295242142    1.0989615673    3.7929212016
H       -0.4053481616    0.5860084252   -0.0987663135
H       -5.3492441180   -1.7748244959    4.9467830041
H       -4.7074606060   -3.7059916435    3.2906049978
16   

C        0.5600785354    0.9179971107    1.7864183071
C        0.5198470971    0.5948734047    3.1238062411
C       -0.4880266923    0.5199472504    0.9864727561
C       -4.5492023719   -1.7451343539    4.2047768192
C       -4.0779528050   -2.8355059102    3.5471918936
C       -1.4997784989   -0.4566916257    2.7973529361
C       -2.6907725131   -1.1803801207    3.3168223428
N       -0.5016555680   -0.0857645131    3.6283720234
N       -1.5121980661   -0.1604925895    1.4896705408
N       -3.6616811886   -0.7073330203    4.0382544482
O       -2.9004203361   -2.5006511513    2.9697683559
H        1.3919715286    1.4724930374    1.3762308282
H        1.3304880582    0.8987090417    3.7763510166
H       -0.4798694649    0.7654602995   -0.0693516848
H       -5.4756159852   -1.6993332181    4.7652740655
H       -4.5604626648   -3.8037789014    3.4928061252
16   

C        0.5732287210    0.8977512135    1.7919376822
C        0.5552251608    0.4505087666    3.0934536951
C       -0.5246736010    0.6453260236    0.9997261983
C       -4.6325707185   -1.7128376634    4.0833775679
C       -4.0179925991   -2.8521765637    3.6737009501
C       -1.5489509433   -0.4156586591    2.7548189642
C       -2.7533230178   -1.1393395868    3.2498830875
N       -0.4946331386   -0.2050835311    3.5726023632
N       -1.5764881397   -0.0104606281    1.4779384327
N       -3.8145575981   -0.6419060840    3.8064434467
O       -2.8205463201   -2.5141608293    3.1407695900
H        1.4277215312    1.4324399483    1.4024327801
H        1.4072903243    0.6337390791    3.7381868345
H       -0.5327459793    0.9854631247   -0.0295212494
H       -5.6081658731   -1.6570711826    4.5520001109
H       -4.4160788585   -3.8560067105    3.7584743701
16   

C        0.5846448262    0.8859097832    1.7917250849
C        0.5884890002    0.3115262107    3.0422023579
C       -0.5510095455    0.7657764403    1.0222932817
C       -4.6848651452   -1.7222976650    3.9483372746
C       -3.9519901259   -2.8553558575    3.7992757835
C       -1.5753462498   -0.4000753966    2.7110917457
C       -2.7829038375   -1.1348424342    3.1739509294
N       -0.4779871813   -0.3346963865    3.4967881647
N       -1.6187545650    0.1188600123    1.4763408526
N       -3.9230281567   -0.6454708796    3.5578152902
O       -2.7365802847   -2.5078761257    3.3155242108
H        1.4522726504    1.4137170945    1.4224048942
H        1.4718152581    0.3849684135    3.6663903800
H       -0.5757338310    1.2032063451    0.0307552586
H       -5.7022467922   -1.6744059589    4.3186605938
H       -4.2815209519   -3.8614145975    4.0285847432
16   

C        0.5859452154    0.8967872733    1.7927293105
C        0.6225138731    0.2190990739    2.9896852520
C       -0.5825105386    0.8720843533    1.0647240757
C       -4.7141318506   -1.7348886562    3.8349670768
C       -3.9090580351   -2.8237629724    3.9284374319
C       -1.5766016481   -0.3981200293    2.6974939077
C       -2.7800939182   -1.1407983584    3.1415150940
N       -0.4444631599   -0.4327703239    3.4349461077
N       -1.6504791918    0.2192979022    1.5091575262
N       -3.9783566284   -0.6785839134    3.3504301465
O       -2.6736228416   -2.4698428247    3.5038240075
H        1.4539135173    1.4296231341    1.4315279480
H        1.5324598760    0.2146824233    3.5789624627
H       -0.6332262969    1.3903540414    0.1139756087
H       -5.7634353998   -1.7023329545    4.1040245833
H       -4.2031162980   -3.8042507634    4.2826870250
16   

C        0.5782432736    0.9099499759    1.7923061251
C        0.6505985644    0.1478786125    2.9356375863
C       -0.6194606387    0.9575863383    1.1147859318
C       -4.7320976873   -1.7714408672    3.7260259346
C       -3.8884666726   -2.7877310872    4.0381234142
C       -1.5707774573   -0.4111713810    2.6943552372
C       -2.7686437239   -1.1575242146    3.1312680206
N       -0.4097976576   -0.5159778630    3.3789417360
N       -1.6808212062    0.2929535143    1.5568374322
N       -4.0049188901   -0.7459769222    3.1683711019
O       -2.6363708281   -2.4192151417    3.6800179640
H        1.4410428482    1.4524243905    1.4330759997
H        1.5837978435    0.0860638980    3.4838950510
H       -0.6991192639    1.5436813204    0.2063586610
H       -5.8026890787   -1.7671173236    3.8942424950
H       -4.1677799612   -3.7290047662    4.4956189959
16   

C        0.5663616603    0.9270966614    1.7943981013
C        0.6705767611    0.0937700056    2.8843031338
C       -0.6563520068    1.0360887196    1.1707903588
C       -4.7427617496   -1.8185034186    3.6250714559
C       -3.8855559015   -2.7383424223    4.1355357450
C       -1.5667023552   -0.4218526282    2.6951361807
C       -2.7608623401   -1.1667580728    3.1327682215
N       -0.3824941164   -0.5816056971    3.3277151865
N       -1.7105248848    0.3603973664    1.6127078023
N       -4.0153890222   -0.8292402137    3.0061071347
O       -2.6239567656   -2.3446476969    3.8437938464
H        1.4235319012    1.4783747940    1.4350968682
H        1.6232933751   -0.0153661441    3.3899636498
H       -0.7621074562    1.6808522016    0.3058131367
H       -5.8234323212   -1.8558358448    3.6973990202
H       -4.1622224592   -3.6314922010    4.6823901812
16   

C        0.5542664253    0.9511264024    1.8061290853
C        0.6826661918    0.0549190165    2.8421967586
C       -0.6884822234    1.1174124947    1.2372216597
C       -4.7456822773   -1.8700959105    3.5399590057
C       -3.8946008648   -2.6709439304    4.2294294142
C       -1.5674453144   -0.4204457477    2.7012357553
C       -2.7603092496   -1.1609466298    3.1439190763
N       -0.3654928660   -0.6286842956    3.2846545764
N       -1.7378423245    0.4339711890    1.6783088960
N       -4.0140596502   -0.9205851970    2.8664543822
O       -2.6323741592   -2.2405149580    3.9987787878
H        1.4077705222    1.5082518756    1.4471204057
H        1.6507334769   -0.0976886550    3.3056963919
H       -0.8144172195    1.8149330177    0.4170432081
H       -5.8253300313   -1.9628202582    3.5247159200
H       -4.1758830012   -3.5085886492    4.8559597546
16   

C        0.5490481656    0.9715127406    1.8276899968
C        0.6933540143    0.0150046810    2.8061475309
C       -0.7084557485    1.1943941991    1.3131708945
C       -4.7365164265   -1.9344095985    3.4596936189
C       -3.9122968708   -2.5985490603    4.3085223283
C       -1.5672838730   -0.4194497466    2.7059281953
C       -2.7615353951   -1.1545346662    3.1522033422
N       -0.3528688807   -0.6752281030    3.2428785683
N       -1.7560094260    0.5048648835    1.7489051560
N       -3.9947168180   -1.0285273564    2.7389717164
O       -2.6571342108   -2.1235756883    4.1335132087
H        1.4012457751    1.5331039445    1.4725560131
H        1.6725743903   -0.1803409250    3.2283360509
H       -0.8478369001    1.9427733383    0.5414267628
H       -5.8045163527   -2.0924995386    3.3656136953
H       -4.2069779045   -3.3739384818    5.0051164124
16   

C        0.5467526181    0.9866614338    1.8495766444
C        0.7004134580   -0.0284592413    2.7655740470
C       -0.7212655060    1.2660756905    1.3915339350
C       -4.7163193838   -2.0114536156    3.3873370176
C       -3.9367826664   -2.5221981512    4.3735096648
C       -1.5694809895   -0.4189194107    2.7038512655
C       -2.7662633005   -1.1489628187    3.1532201611
N       -0.3463715161   -0.7233443867    3.1934826376
N       -1.7694755096    0.5722733125    1.8189647141
N       -3.9608223167   -1.1526407893    2.6243712614
O       -2.6968437940   -1.9952454602    4.2448225411
H        1.3995475031    1.5512514137    1.5006841524
H        1.6875443427   -0.2668072099    3.1450969015
H       -0.8686128804    2.0637097746    0.6723985556
H       -5.7624563498   -2.2443061391    3.2265691047
H       -4.2513616037   -3.2290562640    5.1315996260
16   

C        0.6306247706    0.8404914848    1.8145419781
C       -0.3517771491    1.4572905674    2.5545891635
C        0.4957174183   -0.5022257725    1.5411579521
C       -3.9460420331   -2.8826067411    3.8805294779
C       -4.6484513533   -1.7215634085    3.8889132341
C       -1.4726472766   -0.5480637769    2.7248364727
C       -2.6255460079   -1.3481765063    3.1755755822
N       -1.3986154510    0.7735972172    3.0000199949
N       -0.5514015026   -1.1873322576    1.9853474193
N       -2.6694849395   -2.6259683864    3.4385339312
O       -3.8323094286   -0.7333982047    3.4539583841
H        1.4837887943    1.3971221698    1.4539591271
H       -0.2734538248    2.5150749825    2.7787115078
H        1.2529595462   -1.0091419144    0.9540377615
H       -4.3279677476   -3.8523026525    4.1776773027
H       -5.6818363721   -1.6051705912    4.1920284684
16   

C        0.6178658396    0.8491751280    1.8021226959
C       -0.3212120965    1.4359484181    2.6188927056
C        0.4461150814   -0.4720668859    1.4547158784
C       -3.9241269260   -2.8599297557    3.9783370576
C       -4.6760688138   -1.7482505728    3.7764563136
C       -1.4661305941   -0.5597737231    2.7231230822
C       -2.6216733901   -1.3634341186    3.1721693703
N       -1.3602996496    0.7429963399    3.0681161545
N       -0.5936414797   -1.1661988809    1.9027220242
N       -2.6276872697   -2.5930315791    3.6050361616
O       -3.8714962299   -0.7822490830    3.2751438019
H        1.4651454165    1.4129193570    1.4387250572
H       -0.2147352810    2.4772631815    2.9010217587
H        1.1674976416   -0.9541611545    0.8048804360
H       -4.2856373878   -3.8017157032    4.3743554012
H       -5.7350171352   -1.6501966577    3.9821938753
16   

C        0.6091971991    0.8657844886    1.8002140883
C       -0.2739259313    1.4151726739    2.7010853325
C        0.3907755801   -0.4264854433    1.3780516973
C       -3.9062951952   -2.8127503724    4.0949961900
C       -4.6879844625   -1.7845020565    3.6776294768
C       -1.4537984945   -0.5619593934    2.7370103695
C       -2.6089975001   -1.3690837869    3.1965672664
N       -1.3035386984    0.7134441539    3.1583668316
N       -0.6398043041   -1.1291633807    1.8345128499
N       -2.5951895841   -2.5240685446    3.7956881570
O       -3.8870542266   -0.8508421746    3.1131414856
H        1.4489051712    1.4363316964    1.4299222987
H       -0.1307022484    2.4337433861    3.0435316484
H        1.0670770797   -0.8782210499    0.6613582928
H       -4.2578341679   -3.7111837029    4.5886840414
H       -5.7644682014   -1.7210510801    3.7799823589
16   

C        0.5989609612    0.8668084234    1.7963105317
C       -0.2105484959    1.3776286450    2.7849363927
C        0.3115409000   -0.3850675637    1.2999598544
C       -3.9109610152   -2.7548503320    4.1974826230
C       -4.7015199304   -1.8553028103    3.5579692079
C       -1.4582469152   -0.5563153344    2.7487684390
C       -2.6115783175   -1.3634286152    3.2290920036
N       -1.2368590103    0.6778159117    3.2524530145
N       -0.7156806128   -1.0860516851    1.7670537892
N       -2.5938726319   -2.4188595949    3.9857099661
O       -3.8994911291   -0.9562841350    2.9411271286
H        1.4357194021    1.4358025762    1.4170521687
H       -0.0112368271    2.3637055607    3.1889127748
H        0.9301107674   -0.8059424435    0.5155240683
H       -4.2611278928   -3.5971710503    4.7826128245
H       -5.7846405264   -1.8558989556    3.5446735051
16   

C        0.6063582381    0.8535434418    1.8025766862
C       -0.1035968617    1.3295244374    2.8813253611
C        0.2131842352   -0.3391521119    1.2372469191
C       -3.9163400237   -2.6684408418    4.3139641631
C       -4.6907754616   -1.9545240853    3.4571053976
C       -1.4743504222   -0.5152003559    2.7788121827
C       -2.6236319271   -1.3123750311    3.2916249820
N       -1.1389667487    0.6546018481    3.3651388751
N       -0.8227560545   -1.0161177907    1.7205709239
N       -2.6128503108   -2.2452491045    4.1933172265
O       -3.8920266363   -1.0845615636    2.7958084500
H        1.4499640049    1.4027575652    1.4095662381
H        0.1831342995    2.2670403804    3.3440545358
H        0.7552502631   -0.7330275642    0.3851112183
H       -4.2683629080   -3.4446563893    4.9833461296
H       -5.7605737417   -2.0621365242    3.3256315957
16   

C        0.6191465312    0.8329374235    1.8073471484
C        0.0094376086    1.2694537348    2.9616071309
C        0.1088602733   -0.2823017309    1.1806792085
C       -3.9459522371   -2.5534391030    4.4028379979
C       -4.6649102777   -2.0586652278    3.3627883825
C       -1.5082699164   -0.4512970737    2.7972532127
C       -2.6578079717   -1.2296652904    3.3307606956
N       -1.0452646303    0.6333130704    3.4558086501
N       -0.9461702170   -0.9213656854    1.6742781813
N       -2.6771100467   -2.0238054795    4.3582639729
O       -3.8666861998   -1.2189299880    2.6629232885
H        1.4781132678    1.3511576879    1.4056170379
H        0.3928249587    2.1430377373    3.4765195410
H        0.5741244015   -0.6465291159    0.2718469082
H       -4.3113244249   -3.2546432889    5.1439949132
H       -5.6964763777   -2.2954932432    3.1323321081
16   

C        0.6290945379    0.8179762791    1.8050398506
C        0.0940489152    1.1984777055    3.0145534634
C        0.0331702734   -0.2208742694    1.1254504368
C       -3.9892981688   -2.4435376281    4.4586120921
C       -4.6229169551   -2.1587036186    3.2924094111
C       -1.5277878163   -0.4203437647    2.7957815768
C       -2.6806488808   -1.1826799398    3.3308197095
N       -0.9723548275    0.5833358198    3.5096430618
N       -1.0335638144   -0.8391441317    1.6203392914
N       -2.7588060165   -1.8288773053    4.4575632802
O       -3.8098030208   -1.3663461752    2.5555910019
H        1.4975078038    1.3193628138    1.4022709767
H        0.5469251702    2.0097292092    3.5731613736
H        0.4401082243   -0.5420433131    0.1734249999
H       -4.3861277840   -3.0598117601    5.2568729801
H       -5.6066226420   -2.5062851928    3.0011648665
16   

C        0.6214990775    0.8259876448    1.8029364119
C        0.1487201117    1.1386353160    3.0566666111
C       -0.0364656969   -0.1440914732    1.0809010782
C       -4.0434620062   -2.3376240207    4.5060653377
C       -4.5788773019   -2.2470471108    3.2623872433
C       -1.5379093742   -0.4096308674    2.7990505095
C       -2.6924606036   -1.1631347926    3.3296527631
N       -0.9173878051    0.5246943189    3.5532768455
N       -1.1030646304   -0.7609637122    1.5777469089
N       -2.8478532445   -1.6583059102    4.5254558056
O       -3.7383677509   -1.5139626286    2.4958028550
H        1.4896972791    1.3264924488    1.3986247288
H        0.6509707181    1.8946917331    3.6494497823
H        0.3206653268   -0.4117224061    0.0930124422
H       -4.4837422155   -2.8642443290    5.3446971529
H       -5.5146788630   -2.6861832076    2.9387561325
16   

C        0.6198679004    0.8406262962    1.7895916251
C        0.2018090698    1.0805669922    3.0780224906
C       -0.0864236180   -0.0672301073    1.0335693976
C       -4.0950260917   -2.2455441221    4.5158379564
C       -4.5189120522   -2.3389676037    3.2305309446
C       -1.5265763238   -0.4181013507    2.7906759977
C       -2.6826881491   -1.1680852169    3.3132557480
N       -0.8574114751    0.4560095597    3.5756641812
N       -1.1464673258   -0.6942013396    1.5317398107
N       -2.9323388767   -1.5121183562    4.5473881972
O       -3.6397972509   -1.6700517581    2.4490079325
H        1.4825314744    1.3497426066    1.3841986381
H        0.7418615040    1.7874123484    3.6976867612
H        0.2262077482   -0.2765323835    0.0169365775
H       -4.5899092944   -2.6813747815    5.3758453015
H       -5.4054508243   -2.8591035373    2.8887704540
16   

C        0.6088265510    0.8532475878    1.7817982723
C        0.2449243036    1.0201656429    3.0977330098
C       -0.1417025371    0.0040005225    1.0009863310
C       -4.1553756499   -2.1615935694    4.5184359457
C       -4.4606830869   -2.4339399859    3.2253254379
C       -1.5155532864   -0.4385121097    2.7915777259
C       -2.6734916508   -1.1861795937    3.3086164109
N       -0.8037254801    0.3806513654    3.5984888487
N       -1.1915707643   -0.6373323437    1.5023516696
N       -3.0253022578   -1.3791905543    4.5518199329
O       -3.5378383821   -1.8313114228    2.4405246449
H        1.4629640691    1.3744712086    1.3737478462
H        0.8193322807    1.6811740826    3.7367888947
H        0.1265271966   -0.1459792639   -0.0385544599
H       -4.7103685712   -2.5062188651    5.3831209355
H       -5.2966863667   -3.0301169446    2.8804244589
16   

C        0.5898079592    0.8762617942    1.7727203174
C        0.2840118783    0.9680421405    3.1105954148
C       -0.2076048502    0.0878750186    0.9748306882
C       -4.2211148240   -2.0703384722    4.5082961402
C       -4.4054223831   -2.5124806225    3.2395697434
C       -1.5081915876   -0.4497870830    2.7943051359
C       -2.6678672084   -1.1944533766    3.3104140411
N       -0.7525632069    0.3131526833    3.6165125101
N       -1.2458837770   -0.5681688463    1.4812459901
N       -3.1237759062   -1.2424826400    4.5340625255
O       -3.4373298453   -1.9737814578    2.4629313428
H        1.4342985213    1.4097744734    1.3604945238
H        0.8948013602    1.5817912191    3.7629127603
H        0.0129489398   -0.0005465764   -0.0828192208
H       -4.8379538058   -2.3277234441    5.3613641521
H       -5.1902318602   -3.1801775340    2.9055979504
