24   

C       -1.2781325541   -1.2659339549    2.3558990459
C       -3.7704654383    0.3022871315    3.2429989670
C       -4.9904586694    0.8868078555    1.2460867111
C       -4.9035448431    0.6000850864    4.0100537366
C       -6.1162768083    1.1835531242    2.0224738821
C       -3.7937011450    0.4228059300    1.8364152359
C       -6.0854771213    1.0382900530    3.4100905639
C       -2.6854717471    0.1432730852    0.9320187222
C       -0.4559275787   -0.7175782172    0.1276010188
C       -1.5263417131   -0.5549163862    1.1402471041
C       -1.0324564853    0.8666825342   -3.0389175346
N       -1.0334143347   -1.8567800571    3.3295638188
N       -0.3204904420   -0.2232678388   -1.0864967714
O       -1.2756950596    0.6523588714   -1.6485701382
Cl      -7.4929706011    1.4058281769    4.3761371383
H       -2.8886311917    0.0053568671    3.7917383956
H       -5.0602633337    1.0115532213    0.1713311556
H       -4.8640939279    0.4952630559    5.0881816375
H       -7.0266494837    1.5292510486    1.5467673742
H       -2.8809220280    0.4903962248   -0.0686529282
H        0.3705343398   -1.3538498911    0.4251931361
H       -1.8512178817    1.4481159640   -3.4719861330
H       -0.9637279955   -0.0906585421   -3.5652391389
H       -0.0962265866    1.4162944957   -3.1748880920
24   

C       -1.4370494628   -1.3674274518    2.3135917137
C       -3.6799366302    0.5025455103    3.2273299302
C       -5.0665872739    0.7147059799    1.2621347233
C       -4.7930805911    0.7732108268    4.0322175000
C       -6.1729451077    0.9859039955    2.0754934060
C       -3.7981109251    0.4577746500    1.8240668906
C       -6.0477932253    1.0141372239    3.4665687056
C       -2.7027396075    0.1672812213    0.9032968785
C       -0.5344303156   -0.8381991143    0.1035015891
C       -1.6012822411   -0.6175782986    1.1064087115
C       -0.9013562328    0.9824945484   -2.9645164298
N       -1.2691793532   -1.9827292304    3.2881995898
N       -0.3377574301   -0.3005032371   -1.0828515017
O       -1.1973899342    0.6953249480   -1.5976865878
Cl      -7.4312337863    1.3494847523    4.4780148529
H       -2.7288251251    0.3545974198    3.7228717136
H       -5.2027363626    0.6943093580    0.1867023193
H       -4.6827223487    0.8004718720    5.1101123212
H       -7.1416147936    1.1739988404    1.6273369758
H       -2.9001452753    0.5056848435   -0.1014660468
H        0.2248735132   -1.5604325457    0.3830328277
H       -1.6611155630    1.6539546138   -3.3742042334
H       -0.8919514428    0.0601596157   -3.5540325857
H        0.0776619861    1.4647859226   -3.0420556085
24   

C       -1.5991345651   -1.4130346096    2.2555270049
C       -3.6268553123    0.6896169275    3.1728114557
C       -5.1322617909    0.5678907268    1.2889344638
C       -4.7156456518    0.9246406731    4.0206967150
C       -6.2155478510    0.8044206919    2.1435723944
C       -3.8174139897    0.5104993856    1.7909041406
C       -6.0178716289    0.9845270627    3.5157023378
C       -2.7281872320    0.2210183677    0.8545898188
C       -0.6435337454   -0.9400535928    0.0486614840
C       -1.6954988140   -0.6509689387    1.0481759948
C       -0.7882330827    1.0453812762   -2.9354860785
N       -1.4895802108   -2.0363187128    3.2332360632
N       -0.3925520029   -0.3866133703   -1.1196732123
O       -1.1579386225    0.6991858658   -1.6006929847
Cl      -7.3721614276    1.2766804229    4.5786807140
H       -2.6321801603    0.6612555659    3.6027768276
H       -5.3177565347    0.4207909246    0.2309040789
H       -4.5506787907    1.0609524626    5.0831813334
H       -7.2220871759    0.8447636964    1.7438791231
H       -2.9196164252    0.5711511723   -0.1482333323
H        0.0483627211   -1.7316676743    0.3148026080
H       -1.4819898391    1.7935389373   -3.3290290770
H       -0.8201339644    0.1616272534   -3.5806519475
H        0.2245825974    1.4591384991   -2.9480120906
24   

C       -1.7518901418   -1.4519595984    2.1933339292
C       -3.5937309272    0.8741193831    3.1105012142
C       -5.1726508497    0.4069260850    1.3454396928
C       -4.6544892162    1.0786815848    4.0006077276
C       -6.2292762615    0.6134742371    2.2405873753
C       -3.8387049712    0.5525955059    1.7658020581
C       -5.9805550940    0.9541265375    3.5741055491
C       -2.7520809865    0.2687134559    0.8132435211
C       -0.7571610678   -1.0257607069   -0.0111798154
C       -1.7896336607   -0.6794248021    0.9890873290
C       -0.6707241524    1.1059918005   -2.8953724684
N       -1.6921778218   -2.0864186703    3.1680858119
N       -0.4551406595   -0.4583208711   -1.1602568297
O       -1.1274394798    0.7024055115   -1.6043905623
Cl      -7.3010481222    1.2098787649    4.6877788122
H       -2.5748347646    0.9683264336    3.4697472643
H       -5.3909424935    0.1284959046    0.3206155811
H       -4.4496262384    1.3308628641    5.0345347317
H       -7.2535814840    0.5035582756    1.9041733532
H       -2.9304432557    0.6459110419   -0.1827619533
H       -0.1317639041   -1.8762349898    0.2372135037
H       -1.2939912139    1.9230888538   -3.2692489229
H       -0.7284134366    0.2687174316   -3.5981184424
H        0.3663350735    1.4496754320   -2.8352065900
24   

C       -1.9064542871   -1.5585772657    2.0808455628
C       -3.5779648957    1.0390691377    3.0225240484
C       -5.1808993591    0.2010525089    1.4263857924
C       -4.6077798974    1.2362320021    3.9500054513
C       -6.2077312826    0.3995250361    2.3573966874
C       -3.8562014732    0.5427831302    1.7410110205
C       -5.9319118871    0.9239247493    3.6246645888
C       -2.7725416628    0.2719534532    0.7684737499
C       -0.8528971937   -1.1059752026   -0.0954966836
C       -1.8775702890   -0.7419811384    0.9056471864
C       -0.5605138450    1.1794746562   -2.8450275833
N       -1.9046074001   -2.2349446091    3.0288238723
N       -0.4972881761   -0.5024190935   -1.2101593052
O       -1.0895767453    0.7193029692   -1.6015148687
Cl      -7.2150539438    1.1732661094    4.7825854434
H       -2.5558530473    1.2725823451    3.2994455800
H       -5.4141080449   -0.2211787860    0.4554372799
H       -4.3803652841    1.6287873192    4.9342089118
H       -7.2284536870    0.1405189409    2.1015272918
H       -2.9162741951    0.7251296921   -0.2013494875
H       -0.2861365525   -2.0050608601    0.1201218137
H       -1.1225782115    2.0538199002   -3.1848881934
H       -0.6364367051    0.3945624624   -3.6041589724
H        0.4907035998    1.4583237772   -2.7247653802
24   

C       -2.1254355189   -1.7787412909    1.9040758947
C       -3.6097717309    1.2638003251    2.9019942968
C       -5.1495685352   -0.0083291454    1.5500893830
C       -4.6310384700    1.5135369297    3.8265902555
C       -6.1683166626    0.2432857602    2.4769985232
C       -3.8589542731    0.5002980384    1.7545949253
C       -5.9190986241    1.0069413848    3.6225059075
C       -2.7809228899    0.2383431729    0.7674248840
C       -0.8697147919   -1.1465564365   -0.1158555519
C       -1.9584923745   -0.8398663736    0.8366322714
C       -0.4845341306    1.2011771058   -2.8020512506
N       -2.2379955293   -2.5588346516    2.7613365281
N       -0.4638324080   -0.5048653179   -1.1915560880
O       -1.0908871990    0.6869358933   -1.6165701411
Cl      -7.1914175574    1.3206554062    4.7767144504
H       -2.6165053420    1.6608555442    3.0790604755
H       -5.3598256766   -0.6059865193    0.6702101244
H       -4.4262995393    2.1025340470    4.7129397386
H       -7.1614643660   -0.1577130542    2.3118088488
H       -2.6925992316    0.9817208869   -0.0099485867
H       -0.3055668636   -2.0481228899    0.0962716168
H       -0.9863671759    2.1251762524   -3.1026193565
H       -0.5678609057    0.4728126942   -3.6145551431
H        0.5734453230    1.4155948077   -2.6221529302
24   

C       -2.3063128552   -1.9825937542    1.6969338003
C       -3.6717560336    1.4761754545    2.7343939044
C       -5.0763208709   -0.1945997034    1.7163771697
C       -4.6955009481    1.7836852334    3.6387566408
C       -6.0987420984    0.1147399155    2.6213241468
C       -3.8383306949    0.4617330580    1.7819738871
C       -5.9162890022    1.1028817799    3.5939845292
C       -2.7806753832    0.1955036753    0.7805720432
C       -0.8901395941   -1.1814814446   -0.1501973313
C       -2.0252426290   -0.9344989748    0.7637023620
C       -0.4536914250    1.2974082693   -2.7065790227
N       -2.5170807334   -2.8521921222    2.4422369434
N       -0.4522222410   -0.4806237148   -1.1750461217
O       -1.1127322837    0.6970022939   -1.5916067071
Cl      -7.1909645979    1.4861307465    4.7243300164
H       -2.7365068355    2.0225701440    2.7816065707
H       -5.2405969802   -0.9579875526    0.9639049171
H       -4.5464905237    2.5572025631    4.3830342186
H       -7.0433786550   -0.4140361289    2.5709426245
H       -2.4321761110    1.0721404390    0.2547344986
H       -0.3299633078   -2.0915039552    0.0344538306
H       -0.9050213670    2.2697445413   -2.9228687147
H       -0.5509421549    0.6571379144   -3.5885382011
H        0.6087553510    1.4428809439   -2.4870861255
24   

C       -2.4040600950   -2.0905856415    1.5690698797
C       -3.7329980883    1.6025720923    2.5981895257
C       -4.9901181546   -0.3179667533    1.8742243134
C       -4.7551948367    1.9314187807    3.4966941654
C       -6.0107875720    0.0125298148    2.7735570232
C       -3.8186970429    0.4536530014    1.7981605649
C       -5.9006008025    1.1364968936    3.5973309574
C       -2.7702458919    0.1739658063    0.8026811958
C       -0.9662604823   -1.2431527804   -0.2355169015
C       -2.0825399778   -0.9979280298    0.7024905639
C       -0.3866814304    1.3836337807   -2.6097750949
N       -2.6545763739   -2.9976030121    2.2551701445
N       -0.4946393419   -0.5007029990   -1.2152858190
O       -1.0914585366    0.7353604047   -1.5509488802
Cl      -7.1731995766    1.5466621041    4.7205338338
H       -2.8596607210    2.2416824411    2.5326980348
H       -5.1095469946   -1.1859581806    1.2351589426
H       -4.6640970608    2.8115980981    4.1223904777
H       -6.8989151917   -0.6057361690    2.8329388510
H       -2.3566163021    1.0568516982    0.3384448078
H       -0.4541781739   -2.1915738398   -0.1157117054
H       -0.7796694404    2.3943715243   -2.7507927624
H       -0.5100701365    0.8218868493   -3.5405841869
H        0.6798107475    1.4502097946   -2.3723444806
24   

C       -2.4674508200   -2.1954160951    1.4683325170
C       -3.8029001498    1.6722982781    2.4542647338
C       -4.9153170383   -0.4207628781    2.0429124787
C       -4.8094847242    2.0285668851    3.3595846673
C       -5.9198482160   -0.0618972300    2.9496683084
C       -3.8191535004    0.4288226513    1.8019796723
C       -5.8739384346    1.1625572159    3.6207861136
C       -2.7753754639    0.1255000407    0.8199558773
C       -1.0705511416   -1.3174800093   -0.3452193318
C       -2.1478895431   -1.0738024070    0.6391497175
C       -0.3382546256    1.4421321073   -2.5168282900
N       -2.7180203712   -3.1270498260    2.1207358093
N       -0.5806524458   -0.5442228986   -1.2919581630
O       -1.1077103837    0.7433208150   -1.5381558852
Cl      -7.1273944522    1.6073714945    4.7522886786
H       -2.9935140340    2.3694379318    2.2688555345
H       -5.0068950001   -1.3671526831    1.5225730181
H       -4.7687183944    2.9859252096    3.8658964542
H       -6.7475301771   -0.7374337039    3.1319732745
H       -2.3362516809    1.0043680271    0.3731553141
H       -0.6050007744   -2.2957186816   -0.2951831294
H       -0.6819264243    2.4779516854   -2.5867014961
H       -0.4523111616    0.9636084759   -3.4941418076
H        0.7209928076    1.4404095692   -2.2406451539
24   

C       -2.2733664610   -2.2025439436    1.9976956234
C       -3.9751266392    1.6758229405    2.9373678682
C       -4.7587528948   -0.4140081401    2.0437311949
C       -5.2721269299    1.9787935895    3.3673287127
C       -6.0545339173   -0.1074420275    2.4770082152
C       -3.6820258164    0.4639956177    2.2867020419
C       -6.3232988984    1.0877281904    3.1465555646
C       -2.3100903529    0.2317137599    1.8448447027
C       -0.2624556105   -1.0790281766    1.1797554032
C       -1.6589286615   -0.9563694792    1.6571434247
C        1.3756145212    2.0112718829    0.3903634073
N       -2.7484739973   -3.2341064283    2.2561534935
N        0.5913892977   -0.1690783558    0.7575976487
O        0.2365214105    1.1950065286    0.6634033063
Cl      -7.9409373270    1.4658744581    3.6846553134
H       -3.1855955766    2.3944256577    3.1264776051
H       -4.6279528369   -1.3376238966    1.4949521147
H       -5.4689823192    2.9142079411    3.8780470119
H       -6.8641901413   -0.8020089825    2.2851886783
H       -1.7247145949    1.1367213768    1.8119101063
H        0.1377037638   -2.0870048320    1.1664376352
H        1.0986006931    3.0670592521    0.4575113561
H        1.7503333133    1.8058986186   -0.6168532955
H        2.1712752807    1.8094513420    1.1146129517
24   

C       -2.2782472909   -2.2651927963    1.8152362567
C       -3.9961507065    1.7217360431    2.7601749377
C       -4.7500853089   -0.5027056508    2.2505015989
C       -5.2772663127    2.0542219892    3.2139078729
C       -6.0301121390   -0.1642024841    2.7075639434
C       -3.6928792103    0.4336197520    2.2785337927
C       -6.3060763701    1.1132685207    3.1958311867
C       -2.3293197772    0.1864521292    1.8271843570
C       -0.2975235147   -1.0806368564    1.0395929088
C       -1.6857161834   -0.9904576275    1.5528313242
C        1.4136251423    2.0354501006    0.5651796955
N       -2.7204050917   -3.3251764185    2.0102038776
N        0.5684312305   -0.1497928803    0.6924482306
O        0.2520346147    1.2256115471    0.7470298205
Cl      -7.9050727348    1.5279493384    3.7619993509
H       -3.2268161634    2.4849487100    2.7944499718
H       -4.6440549239   -1.5015433832    1.8547572417
H       -5.4786292814    3.0523360052    3.5851870092
H       -6.8237639928   -0.9017854496    2.6762844507
H       -1.7504789358    1.0933484388    1.7792780227
H        0.0892598518   -2.0874531619    0.9246237114
H        1.1607203931    3.0866404878    0.7295388306
H        1.7966596629    1.9175514933   -0.4528935920
H        2.1943839991    1.7459963606    1.2757318011
24   

C       -2.3531075310   -2.2647335618    1.4858521037
C       -4.0373094361    1.7617564688    2.5824471264
C       -4.7032566264   -0.5445049875    2.4588031237
C       -5.3148299947    2.1102322950    3.0331908080
C       -5.9805343137   -0.1874771953    2.9107331525
C       -3.6934809692    0.4284330712    2.2824798444
C       -6.2995221819    1.1386859924    3.2019287094
C       -2.3348400776    0.1771583629    1.8211768063
C       -0.3013077585   -1.0635512352    1.0022403406
C       -1.7116454066   -0.9874404719    1.4588991893
C        1.5224261171    2.0303928829    0.8201368251
N       -2.8188354374   -3.3327162142    1.4860263925
N        0.6189150243   -0.1357265209    0.8273660925
O        0.3667875779    1.2318323064    1.0732186307
Cl      -7.8947674573    1.5722319507    3.7645485387
H       -3.3050315789    2.5529699194    2.4669006306
H       -4.5754186183   -1.5965051108    2.2663380928
H       -5.5477909131    3.1451325561    3.2553621926
H       -6.7376020255   -0.9528107120    3.0376425275
H       -1.7596484923    1.0851745217    1.7755303578
H        0.0535902896   -2.0602180132    0.7627189467
H        1.2987471695    3.0801712505    1.0297293749
H        1.8242085217    1.9352481563   -0.2274404778
H        2.3499510529    1.7104340011    1.4608115675
24   

C       -2.4824315594   -2.1770123542    1.1737177976
C       -4.1145119097    1.7727755052    2.3875968641
C       -4.6148144859   -0.5605952122    2.6728124839
C       -5.3951953515    2.1051082397    2.8426737987
C       -5.8960279278   -0.2215621422    3.1261276633
C       -3.6926259620    0.4337010917    2.2776639051
C       -6.3001580351    1.1109808140    3.2127176117
C       -2.3392001839    0.1908555698    1.7946307267
C       -0.3269548625   -1.0677016467    0.9458630267
C       -1.7482016734   -0.9634153387    1.3553504108
C        1.5909215510    1.9578494639    1.1246255475
N       -3.0384636706   -3.1878694252    1.0122441297
N        0.6528321006   -0.1863932040    0.9572305824
O        0.4713230913    1.1292446943    1.4378703509
Cl      -7.8985450449    1.5254540446    3.7807561184
H       -3.4449635233    2.5788366338    2.1091855611
H       -4.3805184701   -1.6144634967    2.6784925884
H       -5.6934774154    3.1448636266    2.9102222813
H       -6.5851750345   -1.0040213004    3.4223098825
H       -1.7675646262    1.1008327776    1.7234544499
H       -0.0243049470   -2.0375573282    0.5660206895
H        1.3724279045    2.9936412194    1.3991609605
H        1.8072129241    1.9160568577    0.0523692287
H        2.4721227650    1.6219583225    1.6793713944
24   

C       -2.5851630915   -2.0890486222    1.0446094671
C       -4.2092354124    1.7544030779    2.2265763358
C       -4.5040965444   -0.5452241232    2.8624679702
C       -5.4922899206    2.0505570204    2.7008481695
C       -5.7877706315   -0.2447408097    3.3343405235
C       -3.6928330396    0.4471586397    2.2741271506
C       -6.2962753277    1.0529110867    3.2539989659
C       -2.3362554356    0.2226941760    1.7834328810
C       -0.3847234664   -1.0485565066    0.8207123680
C       -1.7901876614   -0.9211735942    1.2695007613
C        1.6517199144    1.8665403774    1.2812209343
N       -3.2022739382   -3.0590753264    0.8578698872
N        0.6266517690   -0.2076484394    0.8931187023
O        0.4974071635    1.0575499396    1.5080613168
Cl      -7.8975729738    1.4229351784    3.8441135468
H       -3.6148194230    2.5570986349    1.8048438723
H       -4.1562846703   -1.5617429665    2.9930656461
H       -5.8716251828    3.0640045990    2.6407235383
H       -6.3952589382   -1.0264625451    3.7755075356
H       -1.7675644935    1.1348667837    1.6972048346
H       -0.1291678988   -1.9936907150    0.3540923842
H        1.4715128038    2.8798859323    1.6507970765
H        1.8770965154    1.9170472597    0.2111777942
H        2.5134730477    1.4448294895    1.8071751917
24   

C       -2.6698374501   -1.9958177841    0.9641828855
C       -4.2958687689    1.7215020490    2.0808166747
C       -4.3911863389   -0.4900534415    3.0226822231
C       -5.5808264450    1.9845237647    2.5701835649
C       -5.6765062586   -0.2242303744    3.5098470849
C       -3.6882884040    0.4696779680    2.2700833705
C       -6.2858994172    1.0123745751    3.2836440434
C       -2.3200100562    0.2621683884    1.7899872250
C       -0.4412418545   -1.0100359683    0.6954831371
C       -1.8252607721   -0.8645447917    1.1978699391
C        1.7263651692    1.7660705623    1.3752796593
N       -3.3322245780   -2.9347074821    0.7742133678
N        0.5987059798   -0.2085598173    0.7974820813
O        0.5243350666    1.0080224641    1.5120143621
Cl      -7.8896797279    1.3411424296    3.8911887169
H       -3.7727176567    2.4994553902    1.5362182802
H       -3.9453211145   -1.4520755396    3.2474208408
H       -6.0387786428    2.9515319618    2.3977883754
H       -6.2063247868   -0.9827811046    4.0742405679
H       -1.7477577748    1.1739634750    1.7124391542
H       -0.2332493411   -1.9300185564    0.1601677388
H        1.5916778532    2.7560914970    1.8198397827
H        1.9821563128    1.8867326143    0.3177842792
H        2.5498680271    1.2570881324    1.8851001335
24   

C       -2.7297968168   -1.8867782121    0.8732232817
C       -4.3885224960    1.6604323639    1.9415809697
C       -4.2807531528   -0.4013307579    3.1789364435
C       -5.6734152113    1.8945708244    2.4461073247
C       -5.5657328813   -0.1653194495    3.6818463632
C       -3.6862883266    0.4921697844    2.2723346694
C       -6.2764934430    0.9813835487    3.3158176585
C       -2.3051512318    0.3077274377    1.7967008725
C       -0.4901256016   -0.9235332034    0.5594632949
C       -1.8518796346   -0.7833601709    1.1180459170
C        1.7860828715    1.6999693855    1.4585530657
N       -3.4216441766   -2.8015740784    0.6715638768
N        0.5703897379   -0.1542363221    0.6901618730
O        0.5421647051    1.0009167865    1.5035041570
Cl      -7.8801817110    1.2738441124    3.9418928347
H       -3.9396292774    2.3897999832    1.2767568566
H       -3.7454534992   -1.2906338375    3.4930593890
H       -6.2106492744    2.7926721848    2.1644972912
H       -6.0168816832   -0.8756367683    4.3648278102
H       -1.7306394582    1.2207949982    1.7483269852
H       -0.3215834127   -1.8069771871   -0.0465105128
H        1.6935885612    2.6532307582    1.9864272781
H        2.0738322928    1.8980109655    0.4211710365
H        2.5683810061    1.1035649836    1.9376445125
24   

C       -2.8007515362   -1.7605432649    0.7368122220
C       -4.4771094739    1.5474808950    1.8092121650
C       -4.1805235947   -0.2847690089    3.3438705214
C       -5.7661811879    1.7590964908    2.3131954731
C       -5.4695552480   -0.0712253183    3.8466370128
C       -3.6799458227    0.5031366708    2.2969097657
C       -6.2762086743    0.9490824806    3.3327784882
C       -2.2906528192    0.3347038069    1.8132430725
C       -0.5331916294   -0.8457501387    0.4518997982
C       -1.8815513458   -0.7065345451    1.0410199660
C        1.8450861119    1.6040869426    1.5528919556
N       -3.5273040236   -2.6331746212    0.4784787909
N        0.5530369658   -0.1231371173    0.6285444940
O        0.5696557251    0.9631382815    1.5321104182
Cl      -7.8850422799    1.2130136770    3.9583644476
H       -4.0986144932    2.1929966574    1.0246625228
H       -3.5673507433   -1.0755301535    3.7618140969
H       -6.3795910762    2.5581645378    1.9135694169
H       -5.8502375033   -0.7002744977    4.6427886556
H       -1.6935346226    1.2340959287    1.8462942253
H       -0.4017080894   -1.6836205407   -0.2239084919
H        1.7920101951    2.5130764443    2.1585643725
H        2.1512728382    1.8744250434    0.5373696882
H        2.5944102924    0.9335932616    1.9844235361
24   

C       -2.8983910888   -1.5265933036    0.4991227383
C       -4.5765784148    1.3523063364    1.6566587729
C       -4.0787118184   -0.1187921083    3.5019260073
C       -5.8830009438    1.5075975193    2.1355823865
C       -5.3860503338    0.0386793094    3.9777312217
C       -3.6613991638    0.5378197939    2.3353332071
C       -6.2994046897    0.8536990353    3.3002347692
C       -2.2727705683    0.3747913830    1.8349642537
C       -0.5455176040   -0.8084476726    0.4324796454
C       -1.9098598969   -0.6016636496    0.9640328724
C        1.9172202977    1.5270362521    1.5970660520
N       -3.6811728150   -2.2930061847    0.1041834646
N        0.5710459855   -0.1460655623    0.6519707528
O        0.6060066699    0.9684491275    1.5184883378
Cl      -7.9290790294    1.0498667390    3.8961270017
H       -4.2729829059    1.8633038909    0.7498518547
H       -3.3858110648   -0.7580646612    4.0374661067
H       -6.5840337936    2.1375935147    1.6006915987
H       -5.6999603528   -0.4761514565    4.8781975438
H       -1.5686881257    1.0980590561    2.2169087260
H       -0.4341522129   -1.6410667280   -0.2533974460
H        1.9124636909    2.3869562856    2.2726892449
H        2.2466318966    1.8568489843    0.6069358880
H        2.6223973847    0.7817976112    1.9778266488
24   

C       -2.9617243154   -1.2820608856    0.2518502366
C       -4.6671478969    1.1338421246    1.5434659146
C       -3.9880707729    0.0947509093    3.6117530476
C       -5.9770470009    1.2348933684    2.0267904014
C       -5.2996703246    0.1975075946    4.0909937026
C       -3.6519687322    0.5852748686    2.3401144060
C       -6.3043064571    0.7732337051    3.3060174281
C       -2.2745298067    0.4163310155    1.8226651801
C       -0.5624649866   -0.7619184572    0.4047594864
C       -1.9398718424   -0.4912049836    0.8676235329
C        1.9235936111    1.4811335543    1.6919009977
N       -3.7735514836   -1.9347659988   -0.2687798096
N        0.5676238064   -0.1470460993    0.6840994142
O        0.5932269277    0.9934839589    1.5177959958
Cl      -7.9385634266    0.9027620336    3.9075458402
H       -4.4371118709    1.4832550576    0.5430073934
H       -3.2279773818   -0.3690925806    4.2302273670
H       -6.7505359619    1.6688931813    1.4040288597
H       -5.5467608015   -0.1765792004    5.0776222053
H       -1.5030886568    0.8321808800    2.4539472551
H       -0.4555657315   -1.5887549864   -0.2887697955
H        1.9295532033    2.2803145346    2.4383404741
H        2.3044787879    1.8768110951    0.7455176073
H        2.5821480598    0.6757927101    2.0322976028
24   

C       -2.9913810839   -1.1586970339    0.0725225363
C       -4.7464152283    0.9702636372    1.4980091897
C       -3.9207629511    0.2964010866    3.6637401211
C       -6.0380596098    1.0758136689    2.0270537226
C       -5.2149283160    0.4044711503    4.1870412107
C       -3.6664225934    0.5959790239    2.3136018339
C       -6.2838756075    0.7979056439    3.3754528311
C       -2.3050202075    0.4131539902    1.7825601359
C       -0.5940808145   -0.6712501020    0.2888030653
C       -1.9741429113   -0.4198921491    0.7565050256
C        1.9152453532    1.3973875130    1.8036995287
N       -3.8007018064   -1.7625860000   -0.5076174091
N        0.5415176559   -0.0974003934    0.6275246896
O        0.5760624620    0.9736783988    1.5484883604
Cl      -7.8967573473    0.9304701281    4.0315197155
H       -4.5853401202    1.1829675776    0.4468706159
H       -3.1115263985   -0.0254907366    4.3094630657
H       -6.8607838357    1.3703148019    1.3859909679
H       -5.3981582426    0.1760276476    5.2304491243
H       -1.5242476744    0.7475863581    2.4493859721
H       -0.4890829416   -1.4429015946   -0.4659513983
H        1.9222982723    2.1334225384    2.6124660070
H        2.3414193785    1.8535320125    0.9050732089
H        2.5345269727    0.5441836545    2.0982082442
24   

C       -2.9770078229   -1.1003985618   -0.0854595691
C       -4.8122867024    0.7848953144    1.4792181737
C       -3.8572551228    0.4598170298    3.6730562081
C       -6.0806845816    0.9158678967    2.0567958385
C       -5.1291051401    0.5930521668    4.2427307943
C       -3.6781661000    0.5576892843    2.2793291669
C       -6.2513771859    0.8217255946    3.4411491630
C       -2.3295670035    0.3707284678    1.7380345428
C       -0.5976771672   -0.5712989181    0.1708038251
C       -1.9841849656   -0.3786066222    0.6501094653
C        1.8973582332    1.3232070335    1.9184100075
N       -3.7658206592   -1.6876142209   -0.7094421504
N        0.5316994362   -0.0182478262    0.5619062911
O        0.5583884824    0.9665884824    1.5746039408
Cl      -7.8364482658    0.9845971400    4.1555731451
H       -4.7214403789    0.8750057602    0.4027973673
H       -3.0072028225    0.2716766406    4.3191925678
H       -6.9439765671    1.0911397196    1.4253878919
H       -5.2526364643    0.5142256149    5.3165215881
H       -1.5479825359    0.6771300657    2.4163652283
H       -0.4794238248   -1.2764654344   -0.6446468560
H        1.8920655482    1.9806653103    2.7922740418
H        2.3714348549    1.8470594726    1.0829636587
H        2.4810268680    0.4278304177    2.1548715436
24   

C       -2.9449408606   -1.0331582762   -0.2517156331
C       -4.8735735041    0.5957926622    1.4801078695
C       -3.7998424452    0.6202071600    3.6427355037
C       -6.1162139581    0.7589140955    2.1041532640
C       -5.0468107435    0.7847389655    4.2568403797
C       -3.6901476515    0.5129796329    2.2400943754
C       -6.2157133096    0.8519723038    3.4947683516
C       -2.3529707718    0.3251781605    1.6844087405
C       -0.5895820826   -0.4549120428    0.0608407825
C       -1.9843552283   -0.3311422658    0.5425998709
C        1.8802080869    1.2422475610    2.0311865150
N       -3.7035759976   -1.6059801687   -0.9247573464
N        0.5306884408    0.0743581159    0.5082034118
O        0.5458480142    0.9566386227    1.6113773028
Cl      -7.7698861579    1.0537772363    4.2649681512
H       -4.8581510139    0.5605598174    0.3981764886
H       -2.9147756892    0.5652116632    4.2665487702
H       -7.0158803308    0.8176471020    1.5025467978
H       -5.1136484267    0.8583207025    5.3360366965
H       -1.5724625522    0.6215935557    2.3669353303
H       -0.4532317706   -1.0826775624   -0.8130137247
H        1.8602123825    1.8130705915    2.9637641579
H        2.3954344877    1.8304436450    1.2659092048
H        2.4338178863    0.3129316488    2.1991580944
24   

C       -2.9245093964   -0.9226929862   -0.4107201607
C       -4.9311168919    0.3851076716    1.5176712490
C       -3.7690450264    0.7738806212    3.5951830499
C       -6.1519238747    0.5749409083    2.1768507610
C       -4.9945814265    0.9637748203    4.2435003474
C       -3.7078099340    0.4632814722    2.2183410361
C       -6.1969250949    0.8611092018    3.5425146838
C       -2.3785682327    0.2853814995    1.6476461740
C       -0.5906079804   -0.3393188992   -0.0166852994
C       -1.9932225468   -0.2726569041    0.4582696633
C        1.8705501842    1.1283944386    2.1417823182
N       -3.6482214251   -1.4592596560   -1.1491904844
N        0.5255949663    0.1450485673    0.4893680671
O        0.5383806855    0.9072020816    1.6785431028
Cl      -7.7249406593    1.0949608202    4.3548306615
H       -4.9871869451    0.2043988509    0.4541072351
H       -2.8598849452    0.8604863525    4.1795255883
H       -7.0789631860    0.5049956861    1.6195273137
H       -5.0175193805    1.1920367833    5.3027218368
H       -1.5997073538    0.5790212899    2.3313462416
H       -0.4410412755   -0.8782096834   -0.9460208884
H        1.8453665620    1.6131661860    3.1217505206
H        2.4085627501    1.7732957451    1.4405437307
H        2.4045653353    0.1772246871    2.2331882028
24   

C       -2.9225421084   -0.6403591506   -0.5814978465
C       -4.9507884566    0.1259394803    1.6127475419
C       -3.7594659596    0.9528811709    3.5348599623
C       -6.1598532599    0.3241801042    2.2912327159
C       -4.9729374603    1.1472143514    4.2037543118
C       -3.7113908060    0.4357510970    2.2202635520
C       -6.1845005517    0.8346829957    3.5889718890
C       -2.3866524486    0.2816717306    1.6344289465
C       -0.5832636559   -0.2680835339   -0.0392200167
C       -1.9963171791   -0.1813317332    0.4059734288
C        1.9221692453    0.8717541355    2.2748416921
N       -3.6274672288   -1.0267291703   -1.4248257653
N        0.5473854775    0.0612087500    0.5535442734
O        0.5830994170    0.6177295446    1.8510141874
Cl      -7.6984786030    1.0773797698    4.4246157693
H       -5.0484381274   -0.2715583627    0.6155931342
H       -2.8449212893    1.2118558143    4.0565143812
H       -7.0952969090    0.0778152208    1.8020874950
H       -4.9784041059    1.5451013738    5.2118465821
H       -1.6128979510    0.5903869726    2.3151608919
H       -0.4367194050   -0.6737072503   -1.0345013871
H        1.9165991309    1.2860411623    3.2869434212
H        2.4007724192    1.5893423388    1.6014031068
H        2.5003809960   -0.0573938085    2.2763656107
