43

C      0.20996   -5.60381    5.25424
C      1.88429   -7.03749    4.26592
C      0.55281   -4.58719    4.36334
C      2.22638   -6.01824    3.38140
C      2.10886   -0.50384    4.14019
C      1.34111   -1.44161    3.48423
C      3.46300   -2.04357    3.51508
C      0.86784   -6.84409    5.21480
C      1.56291   -4.78304    3.41258
C      0.53306   -7.96751    6.14878
C      2.07960   -4.24167   -1.34385
C      1.68354   -5.32598   -0.33159
C      2.41218   -2.91569   -0.64536
C      0.54258   -4.85151    0.58112
C      1.26506   -2.45434    0.26657
C      0.85694   -3.52403    1.30098
C     -0.54391   -7.74840    7.19661
C      1.92849   -3.70209    2.40782
N      3.43356   -0.88886    4.15408
N      2.22289   -2.42935    3.07650
O      1.11767   -9.04226    6.06844
H     -0.57316   -5.42045    5.98337
H      2.39490   -7.99522    4.24359
H      0.04180   -3.63122    4.42383
H      3.01850   -6.18309    2.65448
H      1.78308    0.42424    4.59247
H      0.28729   -1.47219    3.25256
H      4.34355   -2.64903    3.33829
H      1.24375   -4.07984   -2.03848
H      2.92943   -4.57778   -1.94916
H      1.37666   -6.23926   -0.85380
H      2.55959   -5.60154    0.26977
H      3.33434   -3.02838   -0.06015
H      2.62145   -2.13791   -1.38831
H     -0.35105   -4.68769   -0.03463
H      0.28112   -5.62962    1.30429
H      1.53105   -1.51789    0.76482
H      0.38561   -2.23975   -0.35461
H     -0.06422   -3.19729    1.79914
H     -1.50254   -7.50324    6.72664
H     -0.28122   -6.91631    7.85868
H     -0.65380   -8.65909    7.78624
H      2.86691   -3.99958    1.93485
