49

C     -2.84529    1.90962    1.86077
C      3.39397   -0.46457   -0.25576
C     -1.87456    0.92356    1.65648
C      2.12995   -0.59209    0.32688
C     -3.46044    1.77099   -0.46122
C      1.14241   -0.65649   -1.89587
C     -2.50042    0.78955   -0.69591
C     -3.65850    2.34008    0.80929
C      3.55728   -0.44417   -1.64314
C      2.41916   -0.57568   -2.46254
C      1.01121   -0.65805   -0.49519
C     -1.70321    0.36801    0.39125
C     -0.10354   -0.63967   -2.73035
C     -2.26812    0.27255   -2.09764
C     -4.71073    3.40365    1.01046
C      5.37838    2.00924   -1.09042
C      4.39942    1.97650   -3.42429
C      2.59721   -1.85392   -4.44727
C      4.92660   -0.24215   -2.25613
C      5.30969    1.25372   -2.42325
O     -0.42760   -1.39704   -3.61288
O     -0.24852   -1.39880    1.69155
O     -1.23653   -2.04671   -0.58043
O     -0.84352    0.41272   -2.28464
O      5.86727   -0.92670   -1.41427
O      2.55765   -0.54807   -3.83157
S     -0.58324   -1.06190    0.29866
H     -2.97122    2.33551    2.85298
H      4.27600   -0.40984    0.37235
H     -1.26962    0.56156    2.48098
H      2.01194   -0.66511    1.40244
H     -4.06653    2.11785   -1.29632
H     -2.54633   -0.77626   -2.21666
H     -2.79312    0.88247   -2.83579
H     -4.47876    4.29937    0.42338
H     -5.69528    3.04902    0.68738
H     -4.78491    3.69939    2.05990
H      4.38077    2.14226   -0.65969
H      5.99747    1.48230   -0.35834
H      5.80700    3.00508   -1.24475
H      3.37827    2.06197   -3.03929
H      4.77235    2.98992   -3.60622
H      4.34641    1.45085   -4.38158
H      2.75019   -1.67562   -5.51297
H      1.65306   -2.37970   -4.28860
H      3.43192   -2.44063   -4.04494
H      4.93192   -0.69189   -3.25567
H      6.32328    1.23670   -2.85455
H      6.75496   -0.75044   -1.76444
