28   

C       -0.9864302631    0.3276406071    0.5217254022
C       -2.0409334136   -0.5895520671    0.6208309501
C       -1.7878434400    1.4789604548    2.5031844485
C       -3.9210815156    0.3917739006    3.5397769427
C       -2.8339443925    0.5554035603    2.5899832162
C       -0.8416025195    1.3739988533    1.4579442432
C       -2.9511023798   -0.4560450951    1.6616707513
C       -4.6570454247   -0.7109892841    3.1426344409
C       -5.7902527125   -1.3931287484    3.7610273493
C        1.2176043467    2.2844757052    2.5629083650
C       -0.2032471359    3.7696740797    1.0968233071
C        0.3123453090    2.3470650721    1.3292562180
N       -4.0551453496   -1.2375635836    1.9771121454
O       -6.1773432009   -2.5078616311    3.4361591648
O       -6.3724319750   -0.7090113303    4.7738570891
H       -0.2745528049    0.2218150251   -0.2887736763
H       -2.1447443156   -1.3924841685   -0.0980155623
H       -1.7103709030    2.2651780889    3.2438488141
H       -4.1130630768    0.9999325945    4.4155262592
H        0.6734031968    2.5783883687    3.4654244994
H        2.0726789161    2.9562433156    2.4385676092
H        1.5962973606    1.2663581776    2.6984294350
H       -0.8001170838    4.1145145990    1.9465122294
H       -0.8254263280    3.7997454577    0.1966668367
H        0.6363184070    4.4580736694    0.9587481420
H        0.9162812922    2.0657638191    0.4599785644
H       -4.3670052577   -2.0780266785    1.4945208996
H       -7.0858095334   -1.2860250046    5.0903282414
28   

C       -0.7191888794    0.1396853691    0.7973095949
C       -1.7288347645   -0.8220877026    0.9347568049
C       -1.8743697354    1.5911755830    2.3631893220
C       -4.0728014776    0.5522982142    3.3072384975
C       -2.8724268085    0.6206341334    2.4923667422
C       -0.7737939689    1.3587292542    1.5067737758
C       -2.7943241670   -0.5599103414    1.7866856774
C       -4.6811426212   -0.6639054536    3.0512502774
C       -5.8041141019   -1.3321243718    3.7081728754
C        1.0248089647    2.6519736367    2.6881135548
C       -0.1997039955    3.6673090184    0.7277085856
C        0.3382446961    2.3751302493    1.3471043468
N       -3.8866243698   -1.3556469127    2.1081893987
O       -5.9340257219   -2.5466154377    3.7764410529
O       -6.6703825543   -0.4929075632    4.3225476564
H        0.1148321476   -0.0670281377    0.1365846331
H       -1.6780535160   -1.7580877823    0.3929792592
H       -1.9509685570    2.5107379339    2.9299752449
H       -4.4115947314    1.2917204522    4.0227862345
H        0.3239159675    3.0859004397    3.4074566684
H        1.8561629984    3.3502637362    2.5496918988
H        1.4227505121    1.7211801748    3.1047629905
H       -0.9495214811    4.1301471405    1.3763749874
H       -0.6598157260    3.4537189521   -0.2423243760
H        0.6158694658    4.3805503589    0.5729962938
H        1.0935893456    1.9681346918    0.6664267101
H       -4.0548721338   -2.3101668567    1.7973795221
H       -7.3325047734   -1.0709990866    4.7340754424
28   

C       -0.7446476760    0.1688262733    0.7513382137
C       -1.7605353759   -0.7880604517    0.8772763750
C       -1.8844602679    1.6035332633    2.3434998757
C       -4.0776410552    0.5582784488    3.2905572827
C       -2.8882236114    0.6374903883    2.4614863929
C       -0.7881771649    1.3768534154    1.4801651135
C       -2.8211295376   -0.5322208603    1.7373427375
C       -4.6936213610   -0.6508097569    3.0216005853
C       -5.7700641126   -1.3410629969    3.7408592179
C        1.0184158590    2.6416287334    2.6820877758
C       -0.1936588122    3.6894136290    0.7311626139
C        0.3327191671    2.3859258902    1.3362163255
N       -3.9123155414   -1.3301796683    2.0580596188
O       -5.7641513957   -2.5341678982    4.0049147043
O       -6.7434717813   -0.5210689757    4.2005104741
H        0.0865214669   -0.0338974746    0.0857989971
H       -1.7166038973   -1.7167815787    0.3225553989
H       -1.9516060206    2.5134669843    2.9267745994
H       -4.3950389648    1.2790291971    4.0342881937
H        0.3197544433    3.0733800220    3.4048871125
H        1.8559378449    3.3344449522    2.5536112080
H        1.4076451391    1.7029046572    3.0890771541
H       -0.9420683407    4.1495732660    1.3833675756
H       -0.6524068340    3.4909872235   -0.2427169036
H        0.6276362937    4.3984029031    0.5876072857
H        1.0867074071    1.9810408205    0.6527825405
H       -4.0698424541   -2.2867563812    1.7493042454
H       -7.3531921984   -1.1000022884    4.6852069387
28   

C       -0.7784993683    0.1823210433    0.7134481704
C       -1.8012011711   -0.7682043876    0.8332056620
C       -1.8947887541    1.6027746512    2.3345641525
C       -4.0827710294    0.5567259811    3.2907124850
C       -2.9049564912    0.6427401268    2.4465589447
C       -0.8067729021    1.3799742339    1.4599444550
C       -2.8531952852   -0.5166566253    1.7051686860
C       -4.7088442116   -0.6439031980    3.0121550669
C       -5.7521873969   -1.3441299480    3.7827636174
C        1.0149033772    2.6165033484    2.6703074526
C       -0.1953973075    3.6952340464    0.7353314555
C        0.3223811507    2.3810086155    1.3240820782
N       -3.9450213810   -1.3135245945    2.0273412428
O       -5.6274556102   -2.4655034200    4.2472446862
O       -6.8406134491   -0.5867205778    4.0502678220
H        0.0466321702   -0.0177748001    0.0396516151
H       -1.7677759602   -1.6897609590    0.2659787646
H       -1.9495238234    2.5038924583    2.9326229482
H       -4.3785120185    1.2627171186    4.0570348807
H        0.3226872247    3.0466520375    3.4002156467
H        1.8578898114    3.3034866587    2.5462339758
H        1.3975555582    1.6702825057    3.0660198182
H       -0.9382928760    4.1536817507    1.3950183447
H       -0.6585850868    3.5112951810   -0.2392831229
H        0.6310211895    4.3993355891    0.5972552624
H        1.0708477516    1.9774666335    0.6338201739
H       -4.1026195469   -2.2667102870    1.7098838358
H       -7.4119172695   -1.1492059661    4.5970228667
28   

C       -0.7908542654    0.1986825838    0.6994290935
C       -1.8157963285   -0.7490457393    0.8221634377
C       -1.8781960556    1.6038990895    2.3531319406
C       -4.0580945481    0.5560275521    3.3260618367
C       -2.8907037633    0.6466186480    2.4679671108
C       -0.8037337712    1.3874777901    1.4603293354
C       -2.8543701787   -0.5038120786    1.7119097372
C       -4.6915295561   -0.6365995712    3.0422404410
C       -5.7436563493   -1.3296083416    3.8250237614
C        1.0375587446    2.6073531938    2.6586746382
C       -0.1944524803    3.7071943162    0.7494594770
C        0.3269237045    2.3861505377    1.3194868003
N       -3.9462246789   -1.2990273751    2.0381987884
O       -5.5533278557   -2.3220947437    4.5044438432
O       -6.9415058335   -0.7022748330    3.8115625316
H        0.0237941756    0.0035399115    0.0115636425
H       -1.7941984145   -1.6635828377    0.2431600719
H       -1.9209517361    2.4982034680    2.9622782501
H       -4.3407731375    1.2558946753    4.1027154578
H        0.3563113593    3.0331256985    3.4013460048
H        1.8810639359    3.2928164925    2.5297956468
H        1.4222673009    1.6564291647    3.0408761697
H       -0.9276612452    4.1615051460    1.4227138089
H       -0.6704834987    3.5335533075   -0.2208518166
H        0.6321463667    4.4102854450    0.6073737262
H        1.0652134396    1.9867474270    0.6159822036
H       -4.1178163005   -2.2412786788    1.6977878756
H       -7.5114863248   -1.2319659327    4.3913052086
28   

C       -0.7409152318    0.1692355753    0.8096624988
C       -1.7429449508   -0.7940613202    0.9852906968
C       -1.7922545370    1.5820405456    2.4807076945
C       -3.9463953113    0.5322985146    3.5148979507
C       -2.7843277581    0.6106046808    2.6464397426
C       -0.7479935910    1.3700434704    1.5513262921
C       -2.7529426448   -0.5516270953    1.9078592029
C       -4.5678453863   -0.6674623433    3.2654296198
C       -5.7607136132   -1.2733499419    3.9280683613
C        1.1326186961    2.6252953802    2.6392256723
C       -0.2263199746    3.7030395939    0.8045555905
C        0.3512398415    2.3915454562    1.3430213719
N       -3.8345567645   -1.3468125413    2.2642337967
O       -5.7207123935   -2.0011817551    4.8993623941
O       -6.9343355782   -0.9422551991    3.3438255735
H        0.0486755488   -0.0208055599    0.0917919731
H       -1.7300748529   -1.7143325820    0.4151893715
H       -1.8323441038    2.4887944310    3.0713638204
H       -4.2577464654    1.2717180867    4.2423085944
H        0.4853202300    3.0345604392    3.4205891857
H        1.9528342080    3.3285136858    2.4642131912
H        1.5580450047    1.6817039260    2.9955534244
H       -0.9255039262    4.1466023726    1.5197864302
H       -0.7562330464    3.5203447002   -0.1357281980
H        0.5781382571    4.4200111808    0.6131512787
H        1.0545507460    2.0063920165    0.5970047787
H       -4.0457826183   -2.2676691816    1.8904835522
H       -7.6149758139   -1.3888963924    3.8716875048
28   

C       -0.7091444498    0.0989672158    0.9149780295
C       -1.6958781245   -0.8700038953    1.1400918634
C       -1.7279246356    1.5385113445    2.5831319168
C       -3.8724605688    0.5156319156    3.6605215502
C       -2.7064824991    0.5626544149    2.7957487505
C       -0.7081068425    1.3161684321    1.6295471389
C       -2.6829353707   -0.6164552620    2.0843093196
C       -4.4942707223   -0.6959417128    3.4531348401
C       -5.8127149268   -1.1594621454    3.9537379226
C        1.2090992939    2.5936731561    2.6136307409
C       -0.2484027298    3.6544934335    0.8461498136
C        0.3667014113    2.3490487947    1.3590360201
N       -3.7652981067   -1.3995203896    2.4650279187
O       -6.0629183745   -1.5071615922    5.0908484677
O       -6.7349403033   -1.2824773706    2.9707029762
H        0.0591600770   -0.0972769512    0.1760005633
H       -1.6940354661   -1.7993898734    0.5848342606
H       -1.7656608783    2.4611986822    3.1487702674
H       -4.2172298306    1.3032092466    4.3192787198
H        0.5959955129    2.9960776110    3.4256175003
H        2.0114725371    3.3058384332    2.3971890345
H        1.6620970180    1.6552382255    2.9489161849
H       -0.9117670486    4.0976537845    1.5948984488
H       -0.8256537703    3.4644380884   -0.0643416829
H        0.5397136647    4.3762347907    0.6097652528
H        1.0343237390    1.9680938712    0.5788649306
H       -4.0319197579   -2.2903799861    2.0555740172
H       -7.5319543525   -1.6131059219    3.4147412573
28   

C       -0.7026083296    0.1240961629    0.9331298466
C       -1.6959412167   -0.8326669511    1.1813584339
C       -1.6877710050    1.5932645138    2.5953821313
C       -3.8328451403    0.6090382497    3.7041335985
C       -2.6733341842    0.6298774997    2.8303073614
C       -0.6811914714    1.3495791587    1.6332234479
C       -2.6694476282   -0.5585580629    2.1339362519
C       -4.4701540256   -0.6024412540    3.5213735214
C       -5.7970469325   -1.0163893167    4.0153400257
C        1.2703367718    2.6043374897    2.5743331987
C       -0.2087933453    3.6824363070    0.8357599495
C        0.3995760651    2.3693135208    1.3375255821
N       -3.7574168692   -1.3242953422    2.5344288190
O       -6.1430820753   -1.0740225870    5.1799780831
O       -6.6002800646   -1.4865175508    3.0304703895
H        0.0548209215   -0.0881378038    0.1873847033
H       -1.7100287850   -1.7683119081    0.6368882346
H       -1.7105681328    2.5230720648    3.1500827549
H       -4.1683926709    1.4122810251    4.3488603536
H        0.6783463157    3.0136868588    3.3984695824
H        2.0763461265    3.3071042453    2.3413368704
H        1.7190847838    1.6607122422    2.9006496105
H       -0.8491786328    4.1364095796    1.5978916964
H       -0.8084068997    3.4990795437   -0.0615402860
H        0.5838618395    4.3928423157    0.5809018616
H        1.0457781014    1.9791250559    0.5440073135
H       -4.0564460978   -2.2052912670    2.1250325678
H       -7.4164869913   -1.7541913103    3.4825295987
28   

C       -0.7185394456    0.1453879474    0.9037255612
C       -1.7220244454   -0.8037979974    1.1403045898
C       -1.6883400455    1.6049370892    2.5833896013
C       -3.8410039543    0.6292100642    3.6840221314
C       -2.6838801801    0.6492296323    2.8068738327
C       -0.6843125703    1.3621698939    1.6184168925
C       -2.6927678800   -0.5310201422    2.0960622090
C       -4.4920259588   -0.5742330348    3.4858596909
C       -5.8049862226   -0.9857437453    3.9977311689
C        1.2761932508    2.5902932858    2.5775808807
C       -0.1866721169    3.6965189205    0.8430125636
C        0.4076515749    2.3736486942    1.3357583967
N       -3.7876582659   -1.2907541425    2.4894548417
O       -6.2134288495   -0.8290928908    5.1335999578
O       -6.5195907772   -1.7063875642    3.0979954248
H        0.0369982876   -0.0660236174    0.1558385575
H       -1.7456044627   -1.7329513875    0.5851440314
H       -1.7011334606    2.5279570298    3.1496609805
H       -4.1645072778    1.4240965945    4.3453079543
H        0.6854249265    2.9990392069    3.4028878134
H        2.0898717139    3.2869521396    2.3530277659
H        1.7145378937    1.6397942946    2.8980202738
H       -0.8260061040    4.1495604558    1.6066012250
H       -0.7843840957    3.5263541263   -0.0581448611
H        0.6133932641    4.4018562412    0.5974150934
H        1.0531142148    1.9839578899    0.5414017015
H       -4.0987227723   -2.1664737931    2.0766547839
H       -7.3379601674   -1.9412102776    3.5645922046
28   

C       -0.7403431236    0.1702157259    0.8629817816
C       -1.7560256318   -0.7710050864    1.0783458324
C       -1.7069698143    1.6167232204    2.5558136336
C       -3.8732862278    0.6455670734    3.6338154792
C       -2.7145161321    0.6690201668    2.7584788259
C       -0.6981524714    1.3762695622    1.5952451696
C       -2.7310546453   -0.5010329071    2.0304779213
C       -4.5359977470   -0.5478606947    3.4122954464
C       -5.8264074028   -0.9786581975    3.9521444807
C        1.2661746967    2.5700640243    2.5905806611
C       -0.1656486182    3.7135180195    0.8542510176
C        0.4085129455    2.3782527297    1.3370401878
N       -3.8337497703   -1.2567752901    2.4094790322
O       -6.2991767223   -0.6495571103    5.0249264598
O       -6.4499838194   -1.8964075022    3.1706958222
H        0.0191200223   -0.0394116241    0.1185799006
H       -1.7847878192   -1.6925718827    0.5109146751
H       -1.7130860027    2.5310415484    3.1361595179
H       -4.1854099184    1.4266877232    4.3168181905
H        0.6715117213    2.9760156008    3.4144631051
H        2.0902139400    3.2597721752    2.3829661476
H        1.6901138667    1.6108402654    2.9043436429
H       -0.8083556004    4.1641370679    1.6164515873
H       -0.7552782210    3.5609659405   -0.0553404685
H        0.6448020390    4.4128128719    0.6260706610
H        1.0581489406    1.9907764526    0.5450081557
H       -4.1430886208   -2.1354252947    2.0008038696
H       -7.2667931851   -2.1119984971    3.6494177926
28   

C       -0.7424710516    0.2164507817    0.8118379950
C       -1.7697004991   -0.7160285620    1.0097466059
C       -1.6911117394    1.6429871316    2.5316589382
C       -3.8616785239    0.6727133667    3.6019861071
C       -2.7097387240    0.7037895024    2.7175976159
C       -0.6855630403    1.4081555738    1.5662886293
C       -2.7413312462   -0.4518969775    1.9669435936
C       -4.5400916984   -0.5068694271    3.3555514157
C       -5.7976079818   -0.9650496595    3.9413779777
C        1.2833791366    2.5726327944    2.5907566485
C       -0.1223272723    3.7447704394    0.8522116429
C        0.4346227473    2.4000100347    1.3281676890
N       -3.8492570034   -1.2042869037    2.3372984342
O       -6.3343521811   -0.5044209199    4.9328328499
O       -6.3297484565   -2.0337474895    3.2951001850
H        0.0149217331    0.0109379236    0.0641897399
H       -1.8089688465   -1.6271699916    0.4263307067
H       -1.6851013803    2.5456401350    3.1300022819
H       -4.1531786246    1.4343717932    4.3155368514
H        0.6865204074    2.9792774917    3.4126789522
H        2.1168219055    3.2546295700    2.3955365538
H        1.6939354846    1.6064321333    2.9008727162
H       -0.7685493771    4.1938251152    1.6123991659
H       -0.7044423246    3.6058814063   -0.0643864361
H        0.6966402496    4.4386370804    0.6383693980
H        1.0875570240    2.0126965234    0.5387755250
H       -4.1548090008   -2.0879524110    1.9361817538
H       -7.1404136284   -2.2396205907    3.7884544923
28   

C       -0.7819192838    0.2344677868    0.7772701051
C       -1.8239803955   -0.6845612298    0.9601144181
C       -1.7179913561    1.6568755342    2.5073607000
C       -3.9008748495    0.7017331899    3.5659915564
C       -2.7512417926    0.7309736224    2.6785079071
C       -0.7109337817    1.4170244153    1.5448248112
C       -2.7965063514   -0.4160177318    1.9151794211
C       -4.5963085683   -0.4641253137    3.3025064698
C       -5.8215452716   -0.9477713425    3.9326791651
C        1.2683498474    2.5402067616    2.5962838030
C       -0.1047018565    3.7504416009    0.8577556113
C        0.4270731600    2.3927634107    1.3253658139
N       -3.9126727513   -1.1597562702    2.2783024409
O       -6.4421167964   -0.3834280649    4.8158495214
O       -6.2440795664   -2.1388345866    3.4365057616
H       -0.0231859613    0.0249662574    0.0320931597
H       -1.8728190284   -1.5897164309    0.3681658526
H       -1.7004001861    2.5519054301    3.1168279631
H       -4.1728552644    1.4494343575    4.3017117240
H        0.6716408211    2.9489506972    3.4172682674
H        2.1141393185    3.2104905053    2.4139887636
H        1.6609886243    1.5648014472    2.9007554405
H       -0.7502608330    4.2022146853    1.6169034879
H       -0.6811957106    3.6292563670   -0.0648794458
H        0.7267775920    4.4333425059    0.6573570816
H        1.0802634771    2.0023522756    0.5377148280
H       -4.2107457695   -2.0525583914    1.8918952950
H       -7.0526760078   -2.3389843966    3.9356192756
28   

C       -0.7994861722    0.2664482555    0.7399868076
C       -1.8510722967   -0.6446460202    0.9071991805
C       -1.7286485456    1.6759069509    2.4843467310
C       -3.9174267811    0.7216335631    3.5317246204
C       -2.7712555247    0.7577628231    2.6400638130
C       -0.7199114986    1.4382650739    1.5229989443
C       -2.8246561235   -0.3787876378    1.8619304334
C       -4.6235517380   -0.4336223820    3.2503700097
C       -5.8116275527   -0.9527619262    3.9237487212
C        1.2641647782    2.5281348225    2.6014421286
C       -0.0832861057    3.7718178752    0.8664826855
C        0.4304720013    2.4036075283    1.3229362662
N       -3.9442386657   -1.1209381008    2.2175997620
O       -6.5321557814   -0.3307616817    4.6834922571
O       -6.1005622448   -2.2349958537    3.5841065933
H       -0.0392463277    0.0584266428   -0.0040694082
H       -1.9052779850   -1.5426812456    0.3049622752
H       -1.7035772457    2.5618340564    3.1067114000
H       -4.1728502470    1.4516281834    4.2907484965
H        0.6663112769    2.9349626315    3.4225369937
H        2.1187045804    3.1907432002    2.4323283669
H        1.6437584783    1.5452634169    2.8983779774
H       -0.7297901257    4.2218838791    1.6258464398
H       -0.6540739539    3.6668013595   -0.0616588117
H        0.7568708546    4.4479479654    0.6798244841
H        1.0852754605    2.0146177087    0.5359201928
H       -4.2287024921   -2.0231241858    1.8430840309
H       -6.9065111341   -2.4450025410    4.0834099414
28   

C       -0.8611262282    0.2760558183    0.7108639135
C       -1.9256373093   -0.6223054249    0.8646560400
C       -1.7672088283    1.6694185654    2.4800403994
C       -3.9605413343    0.7219725115    3.5239744369
C       -2.8222702989    0.7634211561    2.6227898283
C       -0.7635483166    1.4334935580    1.5129687269
C       -2.8938769483   -0.3582935668    1.8253491404
C       -4.6860709524   -0.4163111872    3.2232415021
C       -5.8386814728   -0.9680592267    3.9368512601
C        1.2287624848    2.4897057897    2.6133010632
C       -0.0916871168    3.7614811622    0.8779494128
C        0.4016747249    2.3840786279    1.3285992872
N       -4.0195388031   -1.0938758427    2.1753895908
O       -6.6632245739   -0.3301812168    4.5660720401
O       -5.9841459147   -2.3054907446    3.7582716614
H       -0.1045286699    0.0689449418   -0.0371516408
H       -1.9928774639   -1.5100970006    0.2487050491
H       -1.7275863967    2.5435875858    3.1180647135
H       -4.1913955914    1.4317547779    4.3094544617
H        0.6317478982    2.9003490775    3.4330712919
H        2.0934181450    3.1414073149    2.4534083362
H        1.5929719118    1.5000618200    2.9069800850
H       -0.7389519811    4.2135321567    1.6355131800
H       -0.6563375103    3.6698219631   -0.0553518363
H        0.7579929729    4.4286982448    0.7027162822
H        1.0568981177    1.9916716034    0.5436288353
H       -4.2971022363   -2.0004186432    1.8067834955
H       -6.7867164711   -2.5335808211    4.2549478020
28   

C       -0.8958472510    0.3007645573    0.6803679039
C       -1.9754845981   -0.5815798937    0.8209260316
C       -1.7866153402    1.6909623524    2.4596799179
C       -3.9938153491    0.7631082391    3.4915516086
C       -2.8566078666    0.8006028170    2.5892877199
C       -0.7827552563    1.4483344231    1.4944975763
C       -2.9432843331   -0.3113765571    1.7803928340
C       -4.7373286877   -0.3591525146    3.1767644894
C       -5.8680229722   -0.9306431795    3.9184847065
C        1.2198019473    2.4620423648    2.6171822316
C       -0.0673854606    3.7691356923    0.8830850986
C        0.3998134472    2.3802883260    1.3260795408
N       -4.0786630828   -1.0355689771    2.1227347097
O       -6.8039965676   -0.3109462785    4.3891141453
O       -5.8585705482   -2.2868306845    3.9318200317
H       -0.1391243682    0.0883061129   -0.0660227466
H       -2.0537545223   -1.4627367038    0.1968092139
H       -1.7346277631    2.5571287307    3.1076348135
H       -4.2058418682    1.4601534303    4.2934061384
H        0.6244134083    2.8766208213    3.4361437970
H        2.0964698906    3.1001336391    2.4681305100
H        1.5652277910    1.4641756665    2.9057005824
H       -0.7126230689    4.2256575829    1.6397021378
H       -0.6267194170    3.6941723644   -0.0548927247
H        0.7944434036    4.4235420866    0.7192760253
H        1.0538881300    1.9830032054    0.5426036777
H       -4.3522599893   -1.9441791856    1.7571910457
H       -6.6627414548   -2.5341125491    4.4163234593
28   

C       -0.9225930467    0.3168767010    0.6560037174
C       -2.0107888401   -0.5566327679    0.7845862024
C       -1.8016131868    1.6928551457    2.4521364078
C       -4.0162755048    0.7696781885    3.4731167595
C       -2.8801352954    0.8110495766    2.5698178445
C       -0.7992615805    1.4528998427    1.4846405185
C       -2.9766720741   -0.2892325035    1.7467821285
C       -4.7699200906   -0.3396920674    3.1436219910
C       -5.8940696780   -0.9315941741    3.8932503350
C        1.2088810578    2.4380240707    2.6240779783
C       -0.0601147823    3.7716127885    0.8966663715
C        0.3928461786    2.3749209541    1.3293649300
N       -4.1176860430   -1.0084221079    2.0803641798
O       -6.9383429236   -0.3764327842    4.1773857444
O       -5.7256675962   -2.2544803145    4.1336363387
H       -0.1671035531    0.1063595129   -0.0921916688
H       -2.0965674093   -1.4293463248    0.1496918284
H       -1.7415012039    2.5498853839    3.1114087690
H       -4.2164471826    1.4540892233    4.2885776957
H        0.6146702187    2.8515141892    3.4444245514
H        2.0921281252    3.0689202902    2.4834499804
H        1.5437830194    1.4345404216    2.9054403686
H       -0.7046045206    4.2270071085    1.6546043350
H       -0.6161127844    3.7097437498   -0.0442504956
H        0.8081290169    4.4197686759    0.7421799740
H        1.0462959312    1.9783676236    0.5449898138
H       -4.3916586885   -1.9114007339    1.7025464889
H       -6.5352031575   -2.5280214145    4.5941013007
28   

C       -0.9246724523    0.2880044940    0.6435241361
C       -1.9992303951   -0.6038821021    0.7579227595
C       -1.8371806411    1.6343522977    2.4456386149
C       -4.0482813151    0.6699306682    3.4391282235
C       -2.9026450995    0.7347730445    2.5486991358
C       -0.8247643861    1.4184660130    1.4827283638
C       -2.9750546660   -0.3601522609    1.7162952093
C       -4.7772240244   -0.4476294908    3.0966810807
C       -5.9288305161   -1.0575531594    3.8076997447
C        1.1706253503    2.4090838159    2.6359556432
C       -0.1198626765    3.7598963584    0.9378423926
C        0.3529018084    2.3610669865    1.3418866387
N       -4.1080096220   -1.0988020054    2.0332410738
O       -7.0651516508   -0.6275459136    3.8273465415
O       -5.6286840619   -2.2533739549    4.3661931469
H       -0.1615146055    0.0962466979   -0.1019357259
H       -2.0672052864   -1.4720188057    0.1146570134
H       -1.7950298905    2.4869543473    3.1119836362
H       -4.2708919813    1.3503247538    4.2519094241
H        0.5715618214    2.7958660262    3.4657688408
H        2.0440945806    3.0559078761    2.5071696103
H        1.5209799697    1.4049400327    2.8953421811
H       -0.7673377733    4.1924920187    1.7064679794
H       -0.6782300717    3.7090252746   -0.0023286140
H        0.7394045852    4.4221245600    0.7931262671
H        1.0097680902    1.9895121825    0.5481694830
H       -4.3739778564   -1.9902507999    1.6246454692
H       -6.4573151952   -2.5562405853    4.7703699580
28   

C       -0.8217959259    0.2400539235    0.7080054825
C       -1.8624534352   -0.6893309935    0.8349901438
C       -1.7635743779    1.5568305371    2.5171151926
C       -3.9601724292    0.5444208695    3.4978403269
C       -2.7970235857    0.6217170799    2.6307391513
C       -0.7540428573    1.3752445128    1.5439519948
C       -2.8371038863   -0.4778502600    1.8021171715
C       -4.6512399243   -0.5942563146    3.1606607866
C       -5.9479945077   -1.1089150896    3.6923408626
C        1.2361656616    2.4194870949    2.6491037689
C       -0.1534836688    3.7538729938    1.0173712964
C        0.3808899393    2.3654026330    1.3805937522
N       -3.9578249444   -1.2386894058    2.1092317819
O       -7.0409112536   -0.8423953158    3.2349022983
O       -5.8117749684   -1.9273975841    4.7599936703
H       -0.0626370051    0.0766674386   -0.0482285837
H       -1.9100859473   -1.5565471933    0.1886562180
H       -1.7494537648    2.4160542831    3.1760686565
H       -4.2459140417    1.2614176945    4.2574944548
H        0.6479633619    2.7657302418    3.5042614352
H        2.0800054206    3.1018824032    2.5073007947
H        1.6318848506    1.4244336345    2.8762460872
H       -0.7882440554    4.1521737149    1.8145276924
H       -0.7414921635    3.6996479378    0.0956187847
H        0.6772428880    4.4478576916    0.8555767927
H        1.0243833484    2.0326862517    0.5591643709
H       -4.2438554909   -2.0939249691    1.6412134629
H       -6.7168096781   -2.1770595332    5.0048993586
28   

C       -0.7439208056    0.1572876303    0.7589805366
C       -1.7460336547   -0.8104601840    0.9106144296
C       -1.6912247769    1.4398045251    2.5891293037
C       -3.8513081735    0.3746548659    3.5871694686
C       -2.6873640592    0.4681730608    2.7247173576
C       -0.6992229097    1.2956434014    1.5923575495
C       -2.7061626785   -0.6339632012    1.8992623560
C       -4.5177212593   -0.7890634660    3.2618941724
C       -5.8931500848   -1.1982705473    3.6370293352
C        1.2926308494    2.4020264675    2.6248761598
C       -0.2159163969    3.7073319196    1.0779218121
C        0.3858893553    2.3342678910    1.3939618125
N       -3.8084682941   -1.4199696230    2.2124623163
O       -6.8444208643   -1.1888765178    2.8768579809
O       -6.0403168853   -1.4929582948    4.9485448580
H        0.0002041622    0.0239534014   -0.0178023373
H       -1.7804572849   -1.6759023581    0.2610651090
H       -1.6985582619    2.3030947751    3.2428446982
H       -4.1830521123    1.1176677407    4.3018651045
H        0.7278034997    2.7086577991    3.5104336135
H        2.1011789629    3.1209409358    2.4599424469
H        1.7374190523    1.4202237291    2.8158932299
H       -0.8267152093    4.0713613506    1.9093954907
H       -0.8436983329    3.6449483789    0.1833082794
H        0.5803552815    4.4342306628    0.8894002468
H        1.0041589140    2.0401075301    0.5391368423
H       -4.1146455537   -2.2441550979    1.7024284275
H       -6.9828550300   -1.6956471401    5.0585042422
28   

C       -0.7579419594    0.1641609628    0.7396951670
C       -1.7583564604   -0.8059158822    0.8876179871
C       -1.6846072022    1.4183046066    2.5998626469
C       -3.8344114143    0.3388104427    3.6042226102
C       -2.6790877216    0.4445102087    2.7316999895
C       -0.7040769897    1.2897772022    1.5897045261
C       -2.7072940620   -0.6447544063    1.8895320970
C       -4.5059452877   -0.8219427994    3.2684075845
C       -5.8724523689   -1.2385256555    3.6315096434
C        1.2965765871    2.3858080301    2.6170234126
C       -0.2290755545    3.7081765376    1.1016531822
C        0.3779035901    2.3322015324    1.3942900057
N       -3.8073502370   -1.4343804218    2.2013736413
O       -6.7562650720   -1.4747885331    2.8241463212
O       -6.1182744039   -1.2205598534    4.9616026651
H       -0.0227035099    0.0429116069   -0.0474549042
H       -1.8004676490   -1.6612184445    0.2251873809
H       -1.6849395767    2.2717170206    3.2664740137
H       -4.1605203897    1.0714987222    4.3322040889
H        0.7401537295    2.6806553294    3.5118493869
H        2.1025574190    3.1078364007    2.4531286103
H        1.7444333523    1.4023061126    2.7913743884
H       -0.8324665625    4.0604137759    1.9435589808
H       -0.8653626752    3.6561701121    0.2123956709
H        0.5641613801    4.4388118505    0.9148013121
H        0.9882083453    2.0498654098    0.5298107925
H       -4.1307745766   -2.2420597268    1.6748470918
H       -7.0537186684   -1.4634517979    5.0491610579
28   

C       -0.7797353119    0.1994892490    0.7074152218
C       -1.7853578662   -0.7663972835    0.8463650560
C       -1.6867329308    1.4299930302    2.5930851830
C       -3.8314042601    0.3422325033    3.6013901004
C       -2.6862605731    0.4602411295    2.7164797040
C       -0.7133568511    1.3111139809    1.5747660187
C       -2.7266015652   -0.6152374138    1.8569288397
C       -4.5104849702   -0.8114995654    3.2529426883
C       -5.8466392577   -1.2737979431    3.6447136256
C        1.2973676109    2.3808106419    2.6116574501
C       -0.2233622932    3.7313696556    1.1161783008
C        0.3755536500    2.3482465884    1.3904107979
N       -3.8258793874   -1.4060724649    2.1674968673
O       -6.6656075215   -1.7429806067    2.8685574269
O       -6.1574039813   -1.0353122643    4.9399902852
H       -0.0496263217    0.0854075805   -0.0855587673
H       -1.8363516275   -1.6118526383    0.1719963383
H       -1.6763815881    2.2719576377    3.2740299934
H       -4.1416067603    1.0567204818    4.3541450566
H        0.7452200506    2.6687858880    3.5113453126
H        2.1079433030    3.0991966262    2.4545325982
H        1.7388977551    1.3922636378    2.7731814095
H       -0.8231938341    4.0764318826    1.9635921039
H       -0.8615300676    3.6942845573    0.2275224015
H        0.5740167047    4.4594066580    0.9370346128
H        0.9822704378    2.0725571960    0.5212721370
H       -4.1575851466   -2.2098153179    1.6391480980
H       -7.0704160223   -1.3480570657    5.0422307143
28   

C       -0.8191411278    0.2272797148    0.6715787920
C       -1.8334231310   -0.7304163141    0.8032397587
C       -1.7038805106    1.4415345965    2.5784260743
C       -3.8450890314    0.3524985424    3.5947048168
C       -2.7118432619    0.4796941246    2.6951717525
C       -0.7369675239    1.3263342127    1.5534607727
C       -2.7672351138   -0.5837428904    1.8212131279
C       -4.5345213537   -0.7925578969    3.2365307664
C       -5.8312240936   -1.3082785185    3.6743937770
C        1.2859690448    2.3634040525    2.6014535669
C       -0.2198967624    3.7442831415    1.1185286986
C        0.3639797068    2.3524589471    1.3797407301
N       -3.8663923396   -1.3734414032    2.1341205800
O       -6.5694137211   -1.9889497970    2.9756171731
O       -6.2046952130   -0.9015006991    4.9101984673
H       -0.0935716514    0.1156994821   -0.1259033877
H       -1.8951542815   -1.5677119348    0.1196294407
H       -1.6799576851    2.2729170981    3.2719240586
H       -4.1330556146    1.0473621105    4.3743037605
H        0.7373074964    2.6497578325    3.5037758054
H        2.1048203328    3.0737587758    2.4508284304
H        1.7161429411    1.3684657020    2.7542132031
H       -0.8168990927    4.0870777663    1.9688687147
H       -0.8576477458    3.7224093492    0.2290760882
H        0.5853064699    4.4655147115    0.9470879410
H        0.9680730544    2.0781554550    0.5083385405
H       -4.1998173914   -2.1830249410    1.6150630589
H       -7.0835703277   -1.2893509255    5.0484065871
28   

C       -0.8908735498    0.2300978637    0.6208647031
C       -1.9188700043   -0.7134182161    0.7474851420
C       -1.7422718525    1.4321052299    2.5507070970
C       -3.8808115058    0.3506523709    3.5824137867
C       -2.7634872345    0.4838179220    2.6633758867
C       -0.7848730810    1.3155519149    1.5169113839
C       -2.8420915750   -0.5664241696    1.7749218929
C       -4.5873763992   -0.7815025797    3.2157750104
C       -5.8371037687   -1.3473621823    3.7156515751
C        1.2532110905    2.3147247549    2.5758934091
C       -0.2276555305    3.7250710985    1.0953546270
C        0.3339329280    2.3235390762    1.3518065919
N       -3.9432575741   -1.3506574614    2.0936546713
O       -6.4818163694   -2.2064048139    3.1287967693
O       -6.2681295153   -0.8125063670    4.8822381830
H       -0.1720626522    0.1169862220   -0.1824998278
H       -1.9972021832   -1.5420426004    0.0550529473
H       -1.6982888341    2.2519858706    3.2568095498
H       -4.1368772012    1.0229423621    4.3924189615
H        0.7078633736    2.6074813344    3.4781433521
H        2.0842825883    3.0116607524    2.4295169650
H        1.6663330815    1.3122238719    2.7263201121
H       -0.8229341408    4.0720463362    1.9452357458
H       -0.8622520427    3.7169757426    0.2034202754
H        0.5889702856    4.4348952415    0.9305523603
H        0.9361849748    2.0432372478    0.4810383340
H       -4.2759735296   -2.1706020890    1.5901491193
H       -7.1027072944   -1.2687511888    5.0754415786
28   

C       -0.9242978920    0.2957629830    0.5687672937
C       -1.9643002098   -0.6367169424    0.6774078480
C       -1.7570470564    1.4679612449    2.5249651913
C       -3.8931746733    0.3776671001    3.5531632264
C       -2.7894558255    0.5299500688    2.6205541323
C       -0.8026222638    1.3604745737    1.4874099929
C       -2.8834674169   -0.4997281212    1.7098121666
C       -4.6110752842   -0.7411827637    3.1681267914
C       -5.8023309394   -1.3745190379    3.7238753191
C        1.2434417470    2.3144846556    2.5756825509
C       -0.2071454300    3.7656575656    1.1045748899
C        0.3328211696    2.3532171086    1.3453708268
N       -3.9849728714   -1.2852653104    2.0236563839
O       -6.3227331952   -2.3789757096    3.2558742072
O       -6.3065837586   -0.7606171262    4.8201213993
H       -0.2068646685    0.1888041519   -0.2366678708
H       -2.0524078786   -1.4517032321   -0.0298825902
H       -1.6990275356    2.2699956333    3.2502942516
H       -4.1200567585    1.0162631485    4.3983812391
H        0.6968255609    2.6040321579    3.4781786270
H        2.0859931936    3.0005029025    2.4440076963
H        1.6404527529    1.3040192732    2.7159388772
H       -0.8047041451    4.1081942054    1.9546796507
H       -0.8345247295    3.7787628401    0.2076184757
H        0.6204686827    4.4663503496    0.9564575256
H        0.9375650149    2.0760033378    0.4753415582
H       -4.3057213511   -2.1159646356    1.5298941558
H       -7.0822978367   -1.2878550934    5.0697343700
