45   

C       -2.7926435182   -1.1499853039   -0.8874511782
C       -1.7908690131   -0.1097957760   -0.6153852874
C       -0.6460822265   -0.6448743600   -0.0525813073
C       -4.0938192015   -0.9901785782   -1.5270879509
C       -2.3850436557   -2.3895687681   -0.5046181376
C       -4.4824332615   -3.3174969848   -1.2264757489
C       -7.2922861034   -1.8417457363   -1.0625456904
C       -7.9017777202   -0.7340216601   -0.6047004323
C       -2.0295354675    1.3570894677   -0.8871301405
C       -8.6139601185   -0.7484001083    0.7275725271
C       -7.7940172826    0.5871168152   -1.3289488510
C       -0.5642988770   -5.5979683716   -3.2133624817
C        0.6034623406    0.0770999382    0.3753709457
C       -6.2911451490   -1.9302288140   -2.1857226981
C       -2.7649040893   -4.8454094466   -0.2952147221
C       -2.2262245641   -5.6265987593   -1.4943192281
N       -4.9487980016   -2.0732063953   -1.6220292140
N       -3.2132959026   -3.5045451010   -0.6797369395
O       -4.4042563814    0.0810145686   -2.0286901331
O       -5.2124395654   -4.2935003431   -1.3587831843
O        1.7100216719   -0.4734953959   -0.3364616763
O       -1.0690440796   -4.9743419241   -2.0297542795
S       -0.7641638058   -2.3896928858    0.1806366464
H       -7.4694798564   -2.7711997781   -0.5320107178
H       -3.0136644284    1.6508639726   -0.5100613582
H       -1.2916013012    1.9942826209   -0.3971839774
H       -1.9995371143    1.5446144363   -1.9645207463
H       -8.2940286106    0.1014890546    1.3381824374
H       -9.6950700600   -0.6837396324    0.5723204810
H       -8.3949133471   -1.6660923825    1.2822042877
H       -8.4351786385    0.5796691263   -2.2149262434
H       -8.1152980409    1.4082878544   -0.6815217185
H       -6.7679166306    0.7968681882   -1.6336385731
H        0.3495025633   -5.0892900702   -3.5350824187
H       -1.3004994119   -5.5360178142   -4.0210100774
H       -0.3279291530   -6.6497144776   -3.0227262491
H        0.5395106818    1.1475659141    0.1690914941
H        0.7550180232   -0.0524477236    1.4516299201
H       -6.3598480062   -1.0607435232   -2.8472860774
H       -6.5293002928   -2.7945215831   -2.8157497998
H       -3.5995955660   -5.4000856675    0.1460842371
H       -1.9935370477   -4.7930670685    0.4778065795
H       -3.0052405801   -5.7082338460   -2.2598925237
H       -1.9586981540   -6.6372639069   -1.1700111093
H        1.4974902161   -0.5482057119   -1.2841602779
45   

C       -2.8771435308   -1.2079529730   -0.8729152288
C       -1.8975154258   -0.1583256416   -0.5578506122
C       -0.7674101418   -0.6850071675    0.0414861630
C       -4.1809305213   -1.0536213364   -1.5105973775
C       -2.4588655171   -2.4479089000   -0.5004026460
C       -4.5151733838   -3.4016153338   -1.3008083882
C       -7.3296439464   -1.9005556582   -1.1261654184
C       -7.8734741803   -0.7660393769   -0.6482644156
C       -2.1236407550    1.3028702816   -0.8677167620
C       -8.2849444352   -0.6582940078    0.8009652283
C       -7.8854255474    0.4963422831   -1.4745201707
C       -0.5074557351   -5.5904216221   -3.1988821209
C        0.4543300237    0.0428480036    0.5313734038
C       -6.3334065207   -2.0220733350   -2.2529780626
C       -2.8026749385   -4.9132106762   -0.3361208464
C       -2.2169951229   -5.6694014560   -1.5291173046
N       -4.9958130572   -2.1582010714   -1.6797193485
N       -3.2617844331   -3.5743929920   -0.7155013389
O       -4.5469271486    0.0424856935   -1.9119108174
O       -5.2216563796   -4.3881602357   -1.4748132640
O        1.5479752519   -0.2982363593   -0.3181311482
O       -1.0561266569   -4.9910817241   -2.0222937832
S       -0.8630172390   -2.4340770332    0.2410772882
H       -7.4544675683   -2.8005478464   -0.5336530825
H       -2.9663654925    1.6788663858   -0.2796340694
H       -1.2470092143    1.9145256301   -0.6487277400
H       -2.3574260645    1.4272153799   -1.9291784331
H       -7.9384753472    0.2900341019    1.2230206616
H       -9.3748600546   -0.7033014067    0.8835121815
H       -7.8537961458   -1.4725037509    1.3915644529
H       -8.6736577856    1.1689233069   -1.1230491590
H       -6.9270377999    1.0156662932   -1.3869940945
H       -8.0810338078    0.2745256789   -2.5274962846
H        0.4057364050   -5.0617236155   -3.4884387486
H       -1.2218316384   -5.5310170268   -4.0260902432
H       -0.2578114915   -6.6402489789   -3.0146965383
H        0.3054448454    1.1248919919    0.5240898219
H        0.6765467254   -0.2557647644    1.5607000815
H       -6.3857798934   -1.1591514355   -2.9244284146
H       -6.5802826806   -2.8936746927   -2.8693853909
H       -3.6407761098   -5.4869857775    0.0731513348
H       -2.0550485396   -4.8597395182    0.4597606597
H       -2.9722272269   -5.7534703807   -2.3178983852
H       -1.9420653883   -6.6798337332   -1.2103261379
H        1.2708378946   -0.2766749048   -1.2515808109
45   

C       -2.9296985270   -1.2410498454   -0.8746417207
C       -1.9657338596   -0.1866827349   -0.5285132148
C       -0.8401101843   -0.7111206484    0.0811020040
C       -4.2265304665   -1.0898506266   -1.5271467077
C       -2.5046518874   -2.4822966031   -0.5139914919
C       -4.5380636577   -3.4447872005   -1.3608355463
C       -7.3522931982   -1.9263558098   -1.1733119564
C       -7.8220156806   -0.7752251964   -0.6518178656
C       -2.1992692870    1.2766409077   -0.8224369112
C       -7.9168183328   -0.5734496941    0.8415170302
C       -7.9534358356    0.4504864834   -1.5211715338
C       -0.4828602886   -5.5736122511   -3.2189394410
C        0.3661658973    0.0216470083    0.6010435561
C       -6.3611734221   -2.0661127679   -2.3058903756
C       -2.8285695111   -4.9525032327   -0.3851636222
C       -2.2166151893   -5.6897873480   -1.5766633378
N       -5.0245621807   -2.2009923476   -1.7303613527
N       -3.2928656059   -3.6134414918   -0.7573124642
O       -4.6045149456    0.0106631613   -1.9048586724
O       -5.2333961721   -4.4350108075   -1.5568056866
O        1.4777935095   -0.2998821522   -0.2326078226
O       -1.0539536490   -4.9954302479   -2.0424825981
S       -0.9210162724   -2.4638240395    0.2530759743
H       -7.4364800754   -2.8122775377   -0.5531305328
H       -3.0417939899    1.6428060185   -0.2279179514
H       -1.3240309840    1.8893195408   -0.6005615908
H       -2.4363547621    1.4115555292   -1.8818456244
H       -7.4736839181    0.3866927108    1.1230033296
H       -8.9652037454   -0.5828652863    1.1535655581
H       -7.3837644315   -1.3657949455    1.3759192901
H       -8.7718571401    1.0796848872   -1.1585354144
H       -7.0290726258    1.0349460330   -1.4932636527
H       -8.1734374017    0.1772351389   -2.5572817716
H        0.4294177324   -5.0326638591   -3.4880057332
H       -1.1857817435   -5.5094618551   -4.0555537947
H       -0.2261508243   -6.6235182949   -3.0452476466
H        0.2075467070    1.1023524231    0.6036709938
H        0.5727511303   -0.2870529511    1.6306500052
H       -6.4095032182   -1.2048818729   -2.9802400207
H       -6.6154180631   -2.9403436914   -2.9155232645
H       -3.6683154505   -5.5380801914    0.0035339262
H       -2.0947963446   -4.9017799166    0.4236873923
H       -2.9579904741   -5.7713563592   -2.3787466031
H       -1.9378684294   -6.7013500585   -1.2648634237
H        1.2170556694   -0.2704640630   -1.1705572525
45   

C       -2.9899623291   -1.2518463792   -0.8589242066
C       -2.0435692805   -0.1884960919   -0.4924342720
C       -0.9195760357   -0.7036455450    0.1280009930
C       -4.2837185529   -1.1115991401   -1.5203354997
C       -2.5528921322   -2.4906621881   -0.5034086158
C       -4.5595245674   -3.4740655578   -1.3883605059
C       -7.3797965378   -1.9313141983   -1.2037020041
C       -7.7810164913   -0.7606775121   -0.6586433069
C       -2.2865779268    1.2738567233   -0.7830574877
C       -7.5627591681   -0.4541455488    0.8034938741
C       -8.1056438456    0.4064015040   -1.5584969605
C       -0.4629263974   -5.5484238745   -3.1979933116
C        0.2703272497    0.0404797786    0.6690036829
C       -6.3914154749   -2.1092003013   -2.3367333142
C       -2.8489759997   -4.9655064256   -0.3906424267
C       -2.2130287022   -5.6925656127   -1.5757349504
N       -5.0570044921   -2.2340225773   -1.7551682015
N       -3.3225778348   -3.6303701653   -0.7653387522
O       -4.6873762806   -0.0092169263   -1.8659254861
O       -5.2391957709   -4.4715958638   -1.6008871584
O        1.3982685584   -0.2652160580   -0.1485766634
O       -1.0523444784   -4.9836294461   -2.0241107788
S       -0.9799134828   -2.4584788600    0.2846637336
H       -7.4137952418   -2.7914834488   -0.5438705678
H       -3.1178263623    1.6388196771   -0.1722142500
H       -1.4073003036    1.8876806678   -0.5806915771
H       -2.5442566570    1.4079630494   -1.8377108064
H       -6.4924371683   -0.4711478229    1.0304380554
H       -7.9576673744    0.5342209447    1.0576448488
H       -8.0677595076   -1.2002765545    1.4239596585
H       -9.0873014110    0.8133156992   -1.2984955161
H       -7.3545615362    1.1933516608   -1.4353511124
H       -8.1309533873    0.1107941000   -2.6110588280
H        0.4456416784   -4.9954509840   -3.4548502575
H       -1.1581862196   -5.4876211492   -4.0412412208
H       -0.1958918013   -6.5962790909   -3.0275349505
H        0.0990212021    1.1192972191    0.6734877842
H        0.4646385772   -0.2701064128    1.7004401351
H       -6.4311292872   -1.2612726093   -3.0282869847
H       -6.6534318433   -2.9950948123   -2.9258655217
H       -3.6876940981   -5.5611673299   -0.0152179042
H       -2.1269266070   -4.9095534975    0.4283414541
H       -2.9427751270   -5.7803571654   -2.3877696911
H       -1.9269413741   -6.7017651819   -1.2629343226
H        1.1516011879   -0.2361431336   -1.0903250339
45   

C       -3.0264577383   -1.2597711706   -0.8632989677
C       -2.0901766207   -0.1928210120   -0.4817225792
C       -0.9732237951   -0.7037774553    0.1549647531
C       -4.3108373516   -1.1245784885   -1.5440717495
C       -2.5893911054   -2.4969893492   -0.5021127930
C       -4.5796357161   -3.4880502666   -1.4140277128
C       -7.4066680982   -1.9621556499   -1.2489227611
C       -7.7223388319   -0.8104249921   -0.6036181701
C       -2.3372454833    1.2684917296   -0.7738804020
C       -7.2294656337   -0.5097572625    0.7919206408
C       -8.1100564590    0.3874099780   -1.4390583869
C       -0.4575383366   -5.5391165488   -3.1804925584
C        0.2058519035    0.0438200758    0.7149342414
C       -6.4077186245   -2.1315629033   -2.3786375390
C       -2.8753936312   -4.9735436879   -0.3971336789
C       -2.2228420311   -5.6960052176   -1.5760157799
N       -5.0767405562   -2.2500133067   -1.7880887946
N       -3.3502123248   -3.6398131517   -0.7755147032
O       -4.7135706486   -0.0240334599   -1.8967440648
O       -5.2531355181   -4.4881853452   -1.6341048831
O        1.3541366894   -0.2816228636   -0.0659320155
O       -1.0604220445   -4.9810901790   -2.0102083105
S       -1.0284826467   -2.4590475737    0.3090288534
H       -7.4806069699   -2.8613671818   -0.6469602509
H       -3.1842244159    1.6258104035   -0.1803842235
H       -1.4674382686    1.8884278733   -0.5506712175
H       -2.5731163010    1.4031662772   -1.8335701425
H       -6.6253894538    0.4026098750    0.8004340084
H       -8.0792676207   -0.3787024366    1.4679655985
H       -6.6088631373   -1.3303772536    1.1646032443
H       -9.1484146169    0.6603423394   -1.2296589419
H       -7.4696357888    1.2442510335   -1.2072498750
H       -8.0233309727    0.1814500968   -2.5094379061
H        0.4513751095   -4.9817551772   -3.4263981301
H       -1.1448100556   -5.4776340931   -4.0302191248
H       -0.1882265907   -6.5866251167   -3.0114913127
H        0.0411935309    1.1234221315    0.6964534727
H        0.3704419290   -0.2502654301    1.7563368471
H       -6.4512986992   -1.2824785345   -3.0686261945
H       -6.6593816778   -3.0186324084   -2.9705405146
H       -3.7158641665   -5.5733273668   -0.0323149208
H       -2.1630363743   -4.9159697203    0.4301646838
H       -2.9429977760   -5.7859066188   -2.3963501721
H       -1.9357049591   -6.7043857620   -1.2615344359
H        1.1346173672   -0.2633692579   -1.0146597384
45   

C       -3.0643899665   -1.2257901762   -0.9198448538
C       -2.1359522336   -0.1560971393   -0.5272489603
C       -1.0379021360   -0.6609875710    0.1463750509
C       -4.3300175142   -1.0970019443   -1.6364419552
C       -2.6403597590   -2.4589852201   -0.5302198480
C       -4.6088138808   -3.4577118813   -1.4789787218
C       -7.4436038697   -1.9519709347   -1.3959383502
C       -7.6799501561   -0.8742902265   -0.5961909169
C       -2.3731855548    1.3013601808   -0.8451960597
C       -6.9845601792   -0.6726639680    0.7301888047
C       -8.1602868787    0.3829325701   -1.2812420123
C       -0.4492735116   -5.5334444372   -3.1209437818
C        0.1280110246    0.0904494899    0.7286855816
C       -6.4111635456   -2.1132073830   -2.5014135988
C       -2.9330119791   -4.9339551532   -0.4033196970
C       -2.2529784664   -5.6704729854   -1.5578145207
N       -5.0927690507   -2.2237396014   -1.8826010793
N       -3.3962264561   -3.6038355570   -0.8081418718
O       -4.7222817348   -0.0006559082   -2.0131171229
O       -5.2786931380   -4.4595172273   -1.7031900382
O        1.3025939069   -0.2747175002    0.0066399301
O       -1.0791104860   -4.9620701886   -1.9714555013
S       -1.1020009090   -2.4139399286    0.3221996044
H       -7.6311545489   -2.9068640401   -0.9170918483
H       -3.2391697092    1.6655417323   -0.2842009365
H       -1.5115153977    1.9246296858   -0.6010110892
H       -2.5744974406    1.4225363345   -1.9136292188
H       -6.3379086137    0.2096382653    0.6988447240
H       -7.7251493391   -0.5433394335    1.5246680485
H       -6.3627468313   -1.5404477202    0.9704566940
H       -9.2265434651    0.5264409024   -1.0842690481
H       -7.6174591833    1.2605354606   -0.9166439976
H       -8.0126950482    0.3261844440   -2.3640180118
H        0.4667665196   -4.9806971918   -3.3502617407
H       -1.1154516089   -5.4790970801   -3.9877848265
H       -0.1867783667   -6.5797816012   -2.9348113590
H       -0.0203629451    1.1707911965    0.6684217628
H        0.2465767609   -0.1713421174    1.7848675934
H       -6.4547788227   -1.2612472594   -3.1887283008
H       -6.6391560295   -3.0023978040   -3.0997714312
H       -3.7831655015   -5.5285118141   -0.0526270993
H       -2.2410720131   -4.8682672957    0.4405200230
H       -2.9529995046   -5.7686106340   -2.3944793169
H       -1.9752631898   -6.6756929571   -1.2252509444
H        1.1232566767   -0.2807391030   -0.9506654385
45   

C       -2.7033818937   -1.0285848800   -0.3954021971
C       -1.6189880338   -0.0396299030   -0.3159924077
C       -0.4350769474   -0.6195356576    0.1036926544
C       -4.0891849105   -0.8088753046   -0.7992457529
C       -2.3016452338   -2.2794320174   -0.0400024411
C       -4.5155390614   -3.1244291833   -0.4396174733
C       -7.2667905037   -1.3441393991   -0.1030883946
C       -8.4009235497   -0.5940718594   -0.1939306861
C       -1.8027802377    1.4173234231   -0.6697638408
C       -9.7661127209   -1.1833961121   -0.4744361635
C       -8.2240146576    0.8724063657   -0.5066844358
C       -1.0054431492   -5.6638223679   -2.8638735760
C        0.8979871019    0.0391719455    0.3307527279
C       -6.3512485593   -1.6852881003   -1.2584106772
C       -2.7559540869   -4.7101648923    0.2938008197
C       -2.4286498886   -5.5446599613   -0.9458518887
N       -4.9789183318   -1.8671441856   -0.7942325352
N       -3.1950588912   -3.3570539144   -0.0587516080
O       -4.4640877587    0.2991509909   -1.1589617258
O       -5.2956227001   -4.0698990560   -0.4562273459
O        1.8062163422   -0.4331637296   -0.6624280960
O       -1.3319797778   -4.9634625933   -1.6604578893
S       -0.6019495744   -2.3476085649    0.4100552136
H       -7.3531323120   -2.1943041581    0.5647672735
H       -2.4878728963    1.8869108458    0.0425455556
H       -0.8608757993    1.9681139022   -0.6625508430
H       -2.2296260313    1.5062885967   -1.6731620119
H      -10.5082391657   -0.3991805291   -0.6525002450
H       -9.7204832791   -1.8299698151   -1.3558965394
H      -10.0953126042   -1.7805623265    0.3810236171
H       -8.8928973393    1.1793418519   -1.3168540879
H       -8.4469518939    1.4716330000    0.3805684822
H       -7.1970355985    1.0887025921   -0.8192351130
H       -0.1193089260   -5.2139050598   -3.3217739476
H       -1.8341505649   -5.6046503261   -3.5765106542
H       -0.7898410213   -6.7157850928   -2.6508512628
H        0.8218034165    1.1272320927    0.2731915846
H        1.2724294790   -0.2161972797    1.3270715769
H       -6.4065805493   -0.9026141668   -2.0233420724
H       -6.7132474608   -2.5969624057   -1.7466493256
H       -3.5435096083   -5.2140738779    0.8638449446
H       -1.8811511726   -4.6789583413    0.9487446427
H       -3.3112119843   -5.6069032912   -1.5914130012
H       -2.1637783654   -6.5593304689   -0.6318037271
H        1.3776660407   -0.4402028484   -1.5369672169
45   

C       -2.7104569405   -1.0484568161   -0.4347691596
C       -1.6316846074   -0.0549119571   -0.3372387124
C       -0.4514885533   -0.6305989260    0.0984810897
C       -4.0903569168   -0.8341954241   -0.8610888955
C       -2.3088270548   -2.2981391667   -0.0755784802
C       -4.5139068708   -3.1507793870   -0.5069203180
C       -7.2821257198   -1.4247477250   -0.2036384064
C       -8.3521866338   -0.5912627550   -0.2664945321
C       -1.8180527259    1.4024197908   -0.6882170550
C       -9.7753604488   -1.0971456640   -0.3293707029
C       -8.1215160238    0.8359864976   -0.7029109772
C       -0.9683638382   -5.6645355477   -2.8986292818
C        0.8753526018    0.0331156070    0.3467674849
C       -6.3444621395   -1.7197311094   -1.3495399044
C       -2.7572455030   -4.7317758767    0.2437252766
C       -2.4118222716   -5.5604446639   -0.9949491492
N       -4.9775131819   -1.8947488770   -0.8661766635
N       -3.1975399098   -3.3792041367   -0.1094014193
O       -4.4605386789    0.2707526176   -1.2344514244
O       -5.2895932366   -4.0996475698   -0.5363591611
O        1.8007740880   -0.4348043055   -0.6325268470
O       -1.3091851839   -4.9722279585   -1.6944991419
S       -0.6155366957   -2.3600216352    0.3989388402
H       -7.4298544871   -2.3045646759    0.4132718017
H       -2.5268235671    1.8621437835    0.0071738183
H       -0.8818990085    1.9616627074   -0.6510574133
H       -2.2177737973    1.4930601038   -1.7025905817
H      -10.4826449327   -0.2688517845   -0.4355225165
H       -9.8948840762   -1.7722728106   -1.1820329856
H      -10.0182083120   -1.6426824709    0.5873146578
H       -8.7824360230    1.0923854123   -1.5368322066
H       -8.3268276069    1.5150053372    0.1295940276
H       -7.0883572349    0.9970029409   -1.0250627768
H       -0.0786550402   -5.2097095070   -3.3445933200
H       -1.7897489164   -5.6031322014   -3.6195122489
H       -0.7523559045   -6.7172305121   -2.6896710812
H        0.7961284961    1.1209054197    0.2888152920
H        1.2352458432   -0.2216567069    1.3485846740
H       -6.3988479787   -0.9263273899   -2.1029499337
H       -6.6822989877   -2.6273934255   -1.8619967355
H       -3.5495299619   -5.2408035368    0.8025482593
H       -1.8904034593   -4.6994715088    0.9091081590
H       -3.2864469317   -5.6240243893   -1.6510998182
H       -2.1464409269   -6.5751435854   -0.6814391257
H        1.3862886197   -0.4415394447   -1.5138259097
45   

C       -2.7442718618   -1.0450150778   -0.4306135386
C       -1.6735325036   -0.0445503581   -0.3154757667
C       -0.5006771225   -0.6103259564    0.1519089835
C       -4.1136256743   -0.8421585352   -0.8943601170
C       -2.3450126551   -2.2893762149   -0.0516393742
C       -4.5359157800   -3.1562528213   -0.5261917482
C       -7.3268703128   -1.5100313932   -0.2841902109
C       -8.3277996070   -0.6008733767   -0.2881335321
C       -1.8613989855    1.4096696987   -0.6787177097
C       -9.7770317908   -0.9995108564   -0.1330395164
C       -8.0562999937    0.7997760393   -0.7809506646
C       -0.9333305330   -5.6570702082   -2.8309634584
C        0.8167150583    0.0622735228    0.4257238274
C       -6.3571727435   -1.7427652317   -1.4155981647
C       -2.7876774966   -4.7230833466    0.2725058932
C       -2.4114272812   -5.5564914263   -0.9539118157
N       -4.9981057672   -1.9052219440   -0.9045801506
N       -3.2274438690   -3.3750717182   -0.0979774069
O       -4.4743080521    0.2548200949   -1.2985333065
O       -5.3052964567   -4.1098765331   -0.5678785705
O        1.7673138228   -0.4094253974   -0.5272723068
O       -1.2977520308   -4.9654927679   -1.6333666978
S       -0.6628476622   -2.3382150298    0.4625032767
H       -7.5214317072   -2.4140148613    0.2829147963
H       -2.6038136245    1.8632075363   -0.0150686271
H       -0.9345808126    1.9803923142   -0.6032892163
H       -2.2197101098    1.4925622808   -1.7091192271
H      -10.4254036357   -0.1179478761   -0.1254383618
H      -10.0768264007   -1.6476879493   -0.9619266311
H       -9.9187925148   -1.5413917971    0.8067964910
H       -8.5969210616    0.9810457344   -1.7151194169
H       -8.3910879828    1.5267684665   -0.0351775521
H       -6.9900693420    0.9669275823   -0.9564076271
H       -0.0391559057   -5.1975159781   -3.2629254571
H       -1.7431679139   -5.6013275707   -3.5652565761
H       -0.7146466226   -6.7082185125   -2.6171036564
H        0.7340215095    1.1490879252    0.3561779350
H        1.1540067660   -0.1819458102    1.4379746931
H       -6.4133475258   -0.9295938879   -2.1472985524
H       -6.6593570086   -2.6425453316   -1.9630753012
H       -3.5890130152   -5.2332150505    0.8172245519
H       -1.9353566642   -4.6822101397    0.9559336346
H       -3.2717359423   -5.6289117972   -1.6278373832
H       -2.1466494614   -6.5678193940   -0.6292484306
H        1.3742915512   -0.4244039580   -1.4182594123
45   

C       -2.7081053864   -1.1038398304   -0.5708654311
C       -1.6417110408   -0.1034489984   -0.4203796430
C       -0.4801142002   -0.6723209272    0.0706505746
C       -4.0663946742   -0.8978095509   -1.0647016898
C       -2.3167739530   -2.3512629665   -0.1935408146
C       -4.4951247153   -3.2154861825   -0.7271566114
C       -7.2849762164   -1.6028919288   -0.5073886239
C       -8.2142093244   -0.6281207268   -0.4328694689
C       -1.8215105103    1.3538437918   -0.7752922764
C       -9.6361699694   -0.9280679397   -0.0197569185
C       -7.9076595961    0.7461446275   -0.9755090389
C       -0.8510910117   -5.6920553358   -2.9762447488
C        0.8289412645   -0.0005345877    0.3833615486
C       -6.3013169311   -1.7928653341   -1.6318915110
C       -2.7651156819   -4.7880180295    0.0991128527
C       -2.3628204506   -5.6118014914   -1.1254364875
N       -4.9497223594   -1.9611648478   -1.1035395460
N       -3.1968050998   -3.4372032143   -0.2705319890
O       -4.4185237341    0.2025274166   -1.4674936829
O       -5.2623673980   -4.1692886469   -0.7959768609
O        1.8009368255   -0.4540948182   -0.5567341309
O       -1.2353039221   -5.0151381794   -1.7764875078
S       -0.6475766026   -2.4031913550    0.3610218566
H       -7.5035215006   -2.5165036101    0.0350767542
H       -2.5759246728    1.8027559045   -0.1221159646
H       -0.8955647817    1.9227441242   -0.6780772004
H       -2.1600373018    1.4456023086   -1.8116041244
H      -10.1883842025   -0.0060296241    0.1851233859
H      -10.1487234208   -1.4722184188   -0.8186583230
H       -9.6452824153   -1.5420294897    0.8859493493
H       -8.1182310138    0.7815780720   -2.0486275626
H       -8.5179406446    1.5037976793   -0.4752372690
H       -6.8568519070    1.0012592804   -0.8112810820
H        0.0501638299   -5.2274915384   -3.3876248080
H       -1.6485930069   -5.6271498318   -3.7231887496
H       -0.6361411538   -6.7457867608   -2.7715327357
H        0.7439592790    1.0870360401    0.3296192113
H        1.1454466916   -0.2599882616    1.3985335465
H       -6.3515867941   -0.9571114250   -2.3379694104
H       -6.5879396665   -2.6778987170   -2.2108747854
H       -3.5780041611   -5.3020962901    0.6225966742
H       -1.9275478915   -4.7526540806    0.8008306271
H       -3.2087686542   -5.6792247390   -1.8178165415
H       -2.1044481958   -6.6255422180   -0.8031800637
H        1.4262725914   -0.4577218614   -1.4557101748
45   

C       -2.7143945464   -1.1471648523   -0.6605442889
C       -1.6589898837   -0.1404843323   -0.4776801288
C       -0.5063718636   -0.7043238121    0.0394766749
C       -4.0616626055   -0.9471483694   -1.1859041251
C       -2.3241190008   -2.3940944119   -0.2805953312
C       -4.4820643759   -3.2700190950   -0.8750354274
C       -7.2827707336   -1.7144298619   -0.6877526828
C       -8.1476402178   -0.6959022256   -0.5233769872
C       -1.8384455306    1.3175093965   -0.8299954904
C       -9.4861390029   -0.9135484976    0.1424298470
C       -7.9008521946    0.6381743294   -1.1836142616
C       -0.7784095136   -5.7055184944   -3.0506935976
C        0.7894939886   -0.0251128693    0.3887163425
C       -6.2804994148   -1.8518735650   -1.8024154655
C       -2.7636609242   -4.8351510786   -0.0117851764
C       -2.3271406791   -5.6506359729   -1.2300251333
N       -4.9364273989   -2.0162467467   -1.2534093810
N       -3.1945155601   -3.4854070985   -0.3860383130
O       -4.4115446775    0.1538745944   -1.5886127725
O       -5.2401099547   -4.2288907774   -0.9703522932
O        1.7851421184   -0.4577339089   -0.5363509227
O       -1.1885221672   -5.0434331915   -1.8512849190
S       -0.6691180410   -2.4379190795    0.3157730618
H       -7.4835173952   -2.6303944423   -0.1424268016
H       -2.6066084121    1.7606618953   -0.1890268793
H       -0.9165900414    1.8895666913   -0.7138814614
H       -2.1580298456    1.4123034537   -1.8720228005
H       -9.4776383076   -0.4780478325    1.1460070751
H      -10.2813532241   -0.4389150811   -0.4404936323
H       -9.7140894774   -1.9806881558    0.2255662653
H       -8.1135721726    0.5771396473   -2.2549453824
H       -8.5461880188    1.4056851788   -0.7457533380
H       -6.8631829180    0.9523280091   -1.0403673892
H        0.1277913493   -5.2318846257   -3.4402669341
H       -1.5622103297   -5.6369003920   -3.8116866356
H       -0.5616663049   -6.7601995602   -2.8529259930
H        0.6953618767    1.0622824284    0.3471700746
H        1.0868455726   -0.2947910033    1.4070087246
H       -6.3285452730   -0.9986367237   -2.4866709471
H       -6.5426270770   -2.7240629529   -2.4116965526
H       -3.5858238174   -5.3563640147    0.4897049875
H       -1.9433711828   -4.7979592419    0.7099595709
H       -3.1560901070   -5.7203856134   -1.9424548372
H       -2.0696356083   -6.6641234717   -0.9063377823
H        1.4288815010   -0.4550609100   -1.4427780564
45   

C       -2.7636109754   -1.1332154333   -0.6899372424
C       -1.7149826730   -0.1237420740   -0.4845714793
C       -0.5802497507   -0.6805449447    0.0777990987
C       -4.0913268636   -0.9407545457   -1.2651646873
C       -2.3869818010   -2.3747661940   -0.2803358822
C       -4.5258834408   -3.2573945475   -0.9316241274
C       -7.3275325407   -1.7459217937   -0.8162425047
C       -8.1083718024   -0.6834408693   -0.5526333103
C       -1.8847123080    1.3302099926   -0.8580092824
C       -9.3150390816   -0.8215869331    0.3455696523
C       -7.8784862833    0.6453547763   -1.2301239015
C       -0.7604530909   -5.7107445005   -2.9649029285
C        0.7035547695    0.0031467830    0.4613288575
C       -6.3021051296   -1.8484510757   -1.9141510673
C       -2.8360438817   -4.8120948678    0.0038661066
C       -2.3611346059   -5.6414451466   -1.1902799326
N       -4.9681082803   -2.0080511146   -1.3382618743
N       -3.2541873245   -3.4670708659   -0.4003196808
O       -4.4202640726    0.1514726795   -1.7070791070
O       -5.2806263180   -4.2175630894   -1.0396717780
O        1.7293511332   -0.4421923824   -0.4238711325
O       -1.2032964450   -5.0408029155   -1.7816635287
S       -0.7526990975   -2.4104454662    0.3712179320
H       -7.5411566271   -2.6719531849   -0.2932020758
H       -2.6866041289    1.7739818862   -0.2602049997
H       -0.9737131318    1.9094455803   -0.6998308914
H       -2.1524680583    1.4140636827   -1.9154782460
H       -9.0884067674   -0.4186803161    1.3371959858
H      -10.1642811740   -0.2720938094   -0.0719830998
H       -9.6074245487   -1.8708426888    0.4517928027
H       -8.1732105154    0.5910081859   -2.2821285754
H       -8.4687013983    1.4290850707   -0.7457721611
H       -6.8267215178    0.9354842682   -1.1649600197
H        0.1561539714   -5.2395871088   -3.3325037429
H       -1.5229943382   -5.6472589105   -3.7476359100
H       -0.5493833901   -6.7640370254   -2.7540909523
H        0.6119457660    1.0898846330    0.4017945381
H        0.9663473434   -0.2527791856    1.4925912835
H       -6.3482594521   -0.9826234607   -2.5824504957
H       -6.5396199283   -2.7122418987   -2.5451125463
H       -3.6739341061   -5.3274138843    0.4850048555
H       -2.0391405966   -4.7661968661    0.7508720409
H       -3.1671055207   -5.7196184516   -1.9277724647
H       -2.1139424475   -6.6510154876   -0.8469637066
H        1.4038783332   -0.4509017306   -1.3417799596
45   

C       -2.7799923350   -1.1833828040   -0.7853644151
C       -1.7499497363   -0.1633663223   -0.5418420640
C       -0.6257532893   -0.7112985922    0.0495945245
C       -4.0907720145   -1.0021985640   -1.4011550629
C       -2.4022045512   -2.4231314904   -0.3719445789
C       -4.5149149567   -3.3224955587   -1.0836995648
C       -7.3203996105   -1.8454659142   -0.9846058824
C       -8.0217109775   -0.7610218053   -0.6115480515
C       -1.9285076301    1.2920504664   -0.9054724759
C       -9.0249901880   -0.8520178598    0.5144042567
C       -7.8546992927    0.5666476113   -1.3098965211
C       -0.6659246512   -5.7201048419   -3.0297949830
C        0.6382606958   -0.0159875390    0.4755870605
C       -6.2898281333   -1.9207724633   -2.0803237316
C       -2.8337822312   -4.8663544037   -0.1147661216
C       -2.3162869078   -5.6823480718   -1.3002052508
N       -4.9589148591   -2.0750765768   -1.4944705767
N       -3.2544702532   -3.5233346969   -0.5227489048
O       -4.4103301142    0.0849460877   -1.8615888283
O       -5.2582130152   -4.2888013314   -1.2139126381
O        1.6928711150   -0.4381825424   -0.3867375756
O       -1.1483056163   -5.0653653098   -1.8535812287
S       -0.7871253910   -2.4450413741    0.3265210798
H       -7.5205202684   -2.7793425164   -0.4702037667
H       -2.7666316354    1.7133589327   -0.3420544498
H       -1.0379591852    1.8861669853   -0.6949215572
H       -2.1466329095    1.3845085737   -1.9735763257
H       -8.5723152314   -0.4967598606    1.4449844744
H       -9.9029835342   -0.2375428752    0.2928751371
H       -9.3598604000   -1.8839369466    0.6583761444
H       -8.2894788577    0.5232494579   -2.3126072187
H       -8.3568515784    1.3606742756   -0.7491446284
H       -6.7993991987    0.8376132218   -1.3868113460
H        0.2550337949   -5.2357241319   -3.3681729787
H       -1.4074845024   -5.6581800136   -3.8325523975
H       -0.4489232164   -6.7727814898   -2.8219964012
H        0.5345112171    1.0701223719    0.4256220029
H        0.8765707957   -0.2804731179    1.5106319599
H       -6.3420503753   -1.0433219577   -2.7329233490
H       -6.5142600347   -2.7766179989   -2.7267110126
H       -3.6793001800   -5.3937438401    0.3391759102
H       -2.0589161443   -4.8168174887    0.6548604679
H       -3.0999868412   -5.7634545457   -2.0610240060
H       -2.0683408672   -6.6916810100   -0.9567655362
H        1.3920434704   -0.4402627847   -1.3130693125
