35

C     -0.56316    0.30733   -0.85309
C     -1.41034    0.84282   -1.54755
C      1.54183   -0.96205   -0.62938
C      0.33640   -0.31750    1.35951
C      0.43178   -0.32490   -0.04300
C      2.51640   -1.58842    0.14771
C      1.29803   -0.93703    2.16040
C      2.39237   -1.60766    1.56074
C      4.60519   -1.25981    2.79534
C     -3.18051    0.60899   -3.39527
C     -3.89444    1.08802   -2.15483
C     -2.42924    1.45167   -2.36970
C      3.70854   -2.23116   -0.52700
C      0.35133   -2.08534    4.22199
C      3.44300   -2.27854    2.40159
C      1.13722   -0.88242    3.66792
O      4.42812   -0.65445    3.88451
O      5.54896   -1.18158    1.96628
H      1.63946   -0.95314   -1.71273
H     -0.50280    0.19386    1.82701
H     -2.90972   -0.44012   -3.45390
H     -3.42568    1.07646   -4.34533
H     -4.62853    1.88311   -2.25563
H     -4.10539    0.36203   -1.37647
H     -2.24512    2.48404   -2.66269
H      4.63771   -1.89789   -0.05297
H      3.67083   -3.32592   -0.44030
H      3.72944   -1.98260   -1.59356
H     -0.65585   -2.13176    3.78988
H      0.25380   -2.02227    5.31307
H      0.85534   -3.02817    3.98418
H      3.00879   -2.66814    3.32351
H      3.89025   -3.11161    1.85513
H      2.12363   -0.81428    4.13638
H      0.59914    0.03738    3.92910
