19   
Generated by ForceBalance from scan.xyz: Frame 1 of 24
C        1.4682771847   -1.1264549735    1.1949769020
C        0.2932006876   -0.4397766205    0.8762206324
C        1.7811706705   -1.3255547611    2.5385891985
C       -0.5203865604    0.0104653219    1.9210066294
C        0.8884962053   -0.8545863315    3.5131122693
C        1.2507471729   -1.0318356599    4.9688370475
C       -1.2611764843   -1.4397212010    5.7069322064
C        0.1961402329   -1.1290458558    6.0670566868
N       -0.2451867968   -0.1998941934    3.2138320524
O        2.4385605000   -1.0603722705    5.2707007648
H        2.1287964718   -1.4903069344    0.4121878824
H        0.0094588801   -0.2531190965   -0.1556464024
H        2.6927455654   -1.8242490545    2.8505158250
H       -1.4359542016    0.5606339373    1.7090117138
H       -1.7266523530   -0.6182305145    5.1642771687
H       -1.3395174137   -2.3370428721    5.0836364942
H       -1.8283524940   -1.6258545804    6.6254102840
H        0.5937714244   -1.8702898136    6.7682431786
H        0.2477740067   -0.1710074370    6.6011956896
19   
Generated by ForceBalance from scan.xyz: Frame 2 of 24
C        1.4002714102   -1.1182304781    1.1767267514
C        0.2700218143   -0.3463336833    0.8931253081
C        1.7197586742   -1.3684163730    2.5104086764
C       -0.4950489571    0.1342867813    1.9610446587
C        0.8776191255   -0.8592271450    3.5093111222
C        1.2446914036   -1.0850213616    4.9570954142
C       -1.2201594035   -1.5606832790    5.7137884511
C        0.1863936181   -1.0454902628    6.0496839593
N       -0.2143905952   -0.1227275395    3.2441968636
O        2.4280946808   -1.2255646079    5.2442281351
H        2.0218946954   -1.5085059558    0.3750379477
H       -0.0163468914   -0.1174325415   -0.1294592848
H        2.5997379715   -1.9347903462    2.7966894222
H       -1.3745022048    0.7493101022    1.7762102976
H       -1.7142096237   -0.9208687406    4.9837210714
H       -1.1872954798   -2.5788282409    5.3096636705
H       -1.8264037203   -1.5896461522    6.6252061328
H        0.6206255326   -1.5805681155    6.8988490471
H        0.1169079101    0.0084857130    6.3525672155
19   
Generated by ForceBalance from scan.xyz: Frame 3 of 24
C        1.4091007390   -1.0934301270    1.1633331969
C        0.2936118687   -0.2946741175    0.8965777488
C        1.7186072063   -1.3852762432    2.4909750427
C       -0.4671494544    0.1714272331    1.9743486712
C        0.8850700753   -0.8835102203    3.5003358728
C        1.2340882576   -1.1593624379    4.9441743513
C       -1.1831343705   -1.6312956948    5.7544119353
C        0.1803886445   -0.9724741822    6.0210952725
N       -0.1928739514   -0.1201868919    3.2510154363
O        2.3889246129   -1.4577594691    5.2269795525
H        2.0261566288   -1.4737916536    0.3534058693
H        0.0147174284   -0.0345758643   -0.1206124137
H        2.5837044641   -1.9790671890    2.7667861433
H       -1.3368444772    0.8037876308    1.8023417352
H       -1.6804765849   -1.1773509104    4.8973131455
H       -1.0754859307   -2.7053301036    5.5657457507
H       -1.8264188389   -1.5147832280    6.6325595341
H        0.6253456592   -1.3335254262    6.9516968957
H        0.0330829766    0.1107589157    6.1245173713
19   
Generated by ForceBalance from scan.xyz: Frame 4 of 24
C        1.4292853014   -1.0664970868    1.1523412434
C        0.3242444700   -0.2511346034    0.8929107374
C        1.7205801157   -1.3946542916    2.4757087572
C       -0.4443393487    0.1963873692    1.9733632378
C        0.8850323556   -0.9035880794    3.4884291839
C        1.2024980365   -1.2284181949    4.9296584388
C       -1.1548911621   -1.6846895112    5.8147121519
C        0.1668389140   -0.9142815665    5.9909105772
N       -0.1824952558   -0.1229933345    3.2455842281
O        2.2983946840   -1.6994432623    5.2115803378
H        2.0509326166   -1.4339413657    0.3399544493
H        0.0586305097    0.0354144246   -0.1207322406
H        2.5715634345   -2.0103841643    2.7472707782
H       -1.3087028867    0.8374162259    1.8065651868
H       -1.6556623694   -1.3983963879    4.8885015812
H       -0.9830570237   -2.7664174233    5.8009243288
H       -1.8259816805   -1.4656499003    6.6512458111
H        0.6265693333   -1.1373966393    6.9566441027
H       -0.0445805534    0.1603026308    5.9450099494
19   
Generated by ForceBalance from scan.xyz: Frame 5 of 24
C        1.4629782020   -1.0291026724    1.1400989187
C        0.3663542114   -0.2028414077    0.8792227964
C        1.7274614382   -1.3898444907    2.4605771631
C       -0.4194837356    0.2247071812    1.9555338358
C        0.8803605270   -0.9110896502    3.4695739618
C        1.1581838866   -1.2842961163    4.9070776942
C       -1.1205349434   -1.7283654206    5.9058382887
C        0.1551035567   -0.8645620006    5.9612256737
N       -0.1776568053   -0.1178129933    3.2255040830
O        2.1685874177   -1.9202952885    5.1843918321
H        2.0969877799   -1.3820348489    0.3308250771
H        0.1200558148    0.1069840739   -0.1324597713
H        2.5642889600   -2.0240783972    2.7336078302
H       -1.2801785742    0.8701554332    1.7868735687
H       -1.6405234198   -1.5963923599    4.9540711412
H       -0.8819005220   -2.7894395174    6.0317770118
H       -1.8031232556   -1.4385718973    6.7108096144
H        0.6462772448   -0.9684225755    6.9318228333
H       -0.1178949046    0.1829068127    5.8039121732
19   
Generated by ForceBalance from scan.xyz: Frame 6 of 24
C        1.4937444258   -1.0003478663    1.1216141152
C        0.4185323018   -0.1473770116    0.8568510662
C        1.7172477929   -1.4031299503    2.4373345874
C       -0.3859546629    0.2657420794    1.9249202849
C        0.8572952097   -0.9314201437    3.4390951393
C        1.0829334779   -1.3617166376    4.8692417927
C       -1.0911918882   -1.8137475528    6.0316411351
C        0.1200835648   -0.8651871491    5.9275279098
N       -0.1782745348   -0.1102184778    3.1915758996
O        1.9960964806   -2.1350841793    5.1350787376
H        2.1412217065   -1.3430623017    0.3186277642
H        0.2029529846    0.1939084819   -0.1517207081
H        2.5304108897   -2.0666417597    2.7123001902
H       -1.2323841278    0.9288127034    1.7525881009
H       -1.6553404922   -1.8309313588    5.0945574692
H       -0.7680885196   -2.8329774704    6.2641805698
H       -1.7647599974   -1.4781263752    6.8262281929
H        0.6627545360   -0.8493392717    6.8765913756
H       -0.2248099844    0.1419121425    5.6851202501
19   
Generated by ForceBalance from scan.xyz: Frame 7 of 24
C        1.5238944441   -0.9850640280    1.0918557884
C        0.5005169430   -0.0765046165    0.8066484252
C        1.6873165734   -1.4145304813    2.4076852076
C       -0.3143536016    0.3631979563    1.8557426215
C        0.8223153506   -0.9123643794    3.3909497639
C        0.9821912583   -1.3763152128    4.8195489132
C       -1.0429734811   -1.8825570678    6.2031410030
C        0.0374959000   -0.8339604514    5.8738649223
N       -0.1628621065   -0.0374512427    3.1230476951
O        1.8314184291   -2.2174799011    5.0924111115
H        2.1774825920   -1.3500988053    0.3038026959
H        0.3327019938    0.2872150555   -0.2031602368
H        2.4570542572   -2.1222467422    2.6968481212
H       -1.1217509128    1.0692831085    1.6677262292
H       -1.6647864445   -2.0937941808    5.3270483203
H       -0.5841392177   -2.8177795705    6.5360220280
H       -1.6973328356   -1.5142779381    6.9992312411
H        0.6361490669   -0.6362865206    6.7686719761
H       -0.4257526627    0.0934924894    5.5361343446
19   
Generated by ForceBalance from scan.xyz: Frame 8 of 24
C        1.5597251247   -0.9694614505    1.0636774095
C        0.5985631116    0.0005666374    0.7644823794
C        1.6470107012   -1.4402836050    2.3724315734
C       -0.2329992737    0.4564038117    1.7932262963
C        0.7694396302   -0.9195197044    3.3352051951
C        0.8544460043   -1.4292362467    4.7550351459
C       -0.9790673307   -1.9548098794    6.3973460621
C       -0.0799076955   -0.8555742891    5.8049845769
N       -0.1562425309    0.0138921927    3.0533698906
O        1.6628094287   -2.3081471197    5.0332821911
H        2.2243585618   -1.3490340165    0.2918999759
H        0.4910645136    0.3988917864   -0.2404875410
H        2.3673961738   -2.1942005740    2.6716458708
H       -0.9926741224    1.2107752326    1.5942705348
H       -1.6439596571   -2.3718168920    5.6335090458
H       -0.3749990585   -2.7684180140    6.8072832171
H       -1.6024927441   -1.5450250586    7.1979609646
H        0.5568644561   -0.4427062608    6.5963145344
H       -0.6749250884   -0.0452726005    5.3839956608
19   
Generated by ForceBalance from scan.xyz: Frame 9 of 24
C        1.4186261049   -0.1057619079    1.6182763160
C        0.3674543809   -0.6414991205    0.8684548065
C        1.5556570712   -0.4967574262    2.9488969573
C       -0.5008301205   -1.5470846842    1.4878515002
C        0.6343863836   -1.4119386888    3.4796766069
C        0.7783316612   -1.8393125964    4.9221795908
C        0.4184972386   -3.8939940298    6.3556124175
C       -0.2432791666   -2.7959850929    5.5117434390
N       -0.3782343726   -1.9306433818    2.7635596400
O        1.6994148508   -1.3888538714    5.5941158028
H        2.1142913016    0.6009472762    1.1732344372
H        0.2186169678   -0.3680858955   -0.1723514090
H        2.3478372733   -0.1191037195    3.5866188282
H       -1.3300825636   -1.9828897202    0.9327233585
H        1.0453328326   -4.5407348284    5.7327082593
H        1.0500458893   -3.4597328254    7.1344905068
H       -0.3429908299   -4.5197522300    6.8311824909
H       -0.9004179070   -2.1850093781    6.1453073069
H       -0.8649836435   -3.2132189955    4.7190748170
19   
Generated by ForceBalance from scan.xyz: Frame 10 of 24
C        1.4104818010   -0.0792839758    1.6195316508
C        0.3142557197   -0.5469926698    0.8892027201
C        1.5894955643   -0.5399938912    2.9228290527
C       -0.5550359379   -1.4581596750    1.4993347046
C        0.6646658016   -1.4560151800    3.4446222555
C        0.8475974221   -1.9579031571    4.8583632894
C        0.3863348659   -3.8408025336    6.4969737502
C       -0.1872410422   -2.9139740746    5.4220449952
N       -0.3910417842   -1.9104372661    2.7474529262
O        1.7920028496   -1.5519554834    5.5256232807
H        2.1082437239    0.6293854440    1.1809325338
H        0.1318078146   -0.2178109519   -0.1298831344
H        2.4162847519   -0.2151208859    3.5455838348
H       -1.4192317057   -1.8414413167    0.9589215994
H        1.1603806591   -4.4916644515    6.0777885763
H        0.8389785575   -3.2691663238    7.3107131737
H       -0.4023807826   -4.4757119611    6.9123748959
H       -0.9860511495   -2.2844446680    5.8396983182
H       -0.6523779095   -3.4701404616    4.6057183725
19   
Generated by ForceBalance from scan.xyz: Frame 11 of 24
C        1.3987372467   -0.0593184821    1.6128545007
C        0.2630755142   -0.4729933730    0.9110309433
C        1.6186311609   -0.5745054763    2.8895374005
C       -0.6035745236   -1.3871301778    1.5210140385
C        0.6926584394   -1.4876929111    3.4127779341
C        0.9148309686   -2.0514878873    4.7968310853
C        0.3498183456   -3.7589566109    6.5901967615
C       -0.1221232035   -3.0130769621    5.3429073104
N       -0.4013876550   -1.8905502229    2.7435062236
O        1.8921887136   -1.6986617949    5.4458996065
H        2.0955533186    0.6495734619    1.1731053974
H        0.0481139317   -0.1002406074   -0.0864771952
H        2.4777719336   -0.2939184157    3.4897284986
H       -1.4976848101   -1.7290088575    1.0018445640
H        1.2243040554   -4.3782050397    6.3683391719
H        0.6350467648   -3.0639360206    7.3839902867
H       -0.4446178280   -4.4108194459    6.9668023220
H       -1.0242566070   -2.4203252352    5.5482171224
H       -0.4214387377   -3.6978617186    4.5438093891
19   
Generated by ForceBalance from scan.xyz: Frame 12 of 24
C        1.3939477450   -0.0473947061    1.6264711193
C        0.2232194054   -0.4060897313    0.9527270058
C        1.6459135479   -0.6136265212    2.8754363151
C       -0.6458714825   -1.3187762736    1.5616121010
C        0.7132528758   -1.5183967661    3.4007982347
C        0.9686214402   -2.1422801028    4.7526873569
C        0.2936174357   -3.6837328832    6.6545050123
C       -0.0650306938   -3.1148863834    5.2834719860
N       -0.4149168111   -1.8683476388    2.7588089852
O        1.9838222624   -1.8530631866    5.3742565391
H        2.0936611298    0.6582991831    1.1861905370
H       -0.0171936751    0.0079756023   -0.0224225366
H        2.5346531323   -0.3791863514    3.4519087053
H       -1.5664239763   -1.6192240879    1.0633962101
H        1.2455549835   -4.2210325121    6.6222982417
H        0.3952490748   -2.8880930489    7.3978412354
H       -0.4830941554   -4.3764350485    6.9934067486
H       -1.0328112771   -2.5991878921    5.2966326710
H       -0.1936489576   -3.9064674249    4.5353754401
19   
Generated by ForceBalance from scan.xyz: Frame 13 of 24
C        1.3815909699   -0.0327040647    1.6283920053
C        0.1767330739   -0.3385482884    0.9894984519
C        1.6662139524   -0.6486548159    2.8462929661
C       -0.6917065717   -1.2498573406    1.6011611390
C        0.7299745621   -1.5457973659    3.3789390706
C        1.0259687751   -2.2247371985    4.6958549430
C        0.2418207284   -3.5906103997    6.6884377254
C        0.0051707684   -3.2115126643    5.2272467287
N       -0.4309932031   -1.8443634903    2.7705186615
O        2.0797836482   -1.9911179252    5.2754221296
H        2.0823720223    0.6699678323    1.1849768378
H       -0.0903169881    0.1153388897    0.0393165864
H        2.5835869868   -0.4587942100    3.3935225854
H       -1.6379004799   -1.5105854203    1.1293657751
H        1.2412246857   -4.0086982670    6.8330460724
H        0.1569390865   -2.7145615646    7.3386287739
H       -0.4958497077   -4.3309337589    7.0134757016
H       -0.9964140650   -2.8015083885    5.0666085468
H        0.0487505052   -4.0930505466    4.5727693307
19   
Generated by ForceBalance from scan.xyz: Frame 14 of 24
C        1.3702066581   -0.0196011818    1.6362321383
C        0.1311271766   -0.2691862173    1.0394066323
C        1.6902366885   -0.6906272940    2.8152821514
C       -0.7341177798   -1.1819981323    1.6527878958
C        0.7541034087   -1.5847333629    3.3546930536
C        1.0929782575   -2.3210795547    4.6303218221
C        0.1801476414   -3.4862375868    6.6928542525
C        0.0894332996   -3.3215224718    5.1736177513
N       -0.4393857280   -1.8285530997    2.7861078349
O        2.1776209559   -2.1290594569    5.1674636715
H        2.0699954665    0.6822936929    1.1900375215
H       -0.1642536303    0.2289560809    0.1202892400
H        2.6353120541   -0.5461368741    3.3280126530
H       -1.7063943832   -1.4001626061    1.2135952221
H        1.1931730276   -3.7560686803    7.0007707969
H       -0.0849534459   -2.5540699012    7.2020788666
H       -0.5081486967   -4.2660225373    7.0333201355
H       -0.9150622666   -3.0414237568    4.8501518806
H        0.3053611222   -4.2731146680    4.6670518336
19   
Generated by ForceBalance from scan.xyz: Frame 15 of 24
C        1.3606537274   -0.0155867074    1.6719206607
C        0.0908108373   -0.2102640147    1.1207001948
C        1.7153004215   -0.7456027940    2.8048068757
C       -0.7687124299   -1.1301500418    1.7311637139
C        0.7829063593   -1.6439128779    3.3448582143
C        1.1621011723   -2.4383343721    4.5733785880
C        0.0784147708   -3.3648729003    6.6645741711
C        0.1716841062   -3.4436204546    5.1346177186
N       -0.4396634666   -1.8352086753    2.8193713032
O        2.2672282701   -2.2747506852    5.0781107645
H        2.0570341649    0.6900702717    1.2263351478
H       -0.2320716793    0.3350367280    0.2383389818
H        2.6841671406   -0.6435688375    3.2820596632
H       -1.7645615667   -1.3060630026    1.3272903611
H        1.0637904205   -3.4832568544    7.1218628990
H       -0.3283349024   -2.3988753736    6.9817642672
H       -0.5812229761   -4.1499709573    7.0468096986
H       -0.8020157875   -3.3122834647    4.6617417277
H        0.5416694984   -4.4334660360    4.8349259713
19   
Generated by ForceBalance from scan.xyz: Frame 16 of 24
C        0.5705600543    0.5689698986    1.9579893494
C        0.6416206248   -0.0802603179    0.7219534188
C        0.8245663002   -0.1664050206    3.1141750267
C        0.9657807758   -1.4411319922    0.6998419113
C        1.1438477409   -1.5267217099    2.9885214612
C        1.4150101274   -2.3319250162    4.2379340180
C        0.7443162854   -4.6864028681    4.8225400438
C        1.7797576515   -3.7998376720    4.1087034753
N        1.2144526900   -2.1564140448    1.8026678723
O        1.3199341023   -1.7932810079    5.3352810655
H        0.3215647971    1.6253932598    2.0162914360
H        0.4517640724    0.4500648586   -0.2069644691
H        0.7831880932    0.2745742764    4.1044980368
H        1.0288130221   -1.9775621302   -0.2457013156
H        0.6435456437   -4.3944008987    5.8711018563
H       -0.2385304857   -4.6027334332    4.3466840667
H        1.0497670607   -5.7363897490    4.7801729955
H        1.8782357767   -4.0773061814    3.0593427272
H        2.7561721491   -3.9218199451    4.5923197538
19   
Generated by ForceBalance from scan.xyz: Frame 17 of 24
C        0.5518072385    0.5267877076    1.9702302665
C        0.5505734941   -0.1686939334    0.7576138207
C        0.8798659105   -0.1639716002    3.1354620764
C        0.8804325956   -1.5284936961    0.7665924516
C        1.2009183532   -1.5260350180    3.0411401444
C        1.5493749517   -2.2892035886    4.2972580247
C        0.6811474479   -4.6149455948    4.6273310989
C        1.8873404204   -3.7628596829    4.1863878760
N        1.2027563013   -2.2000744758    1.8777263009
O        1.5015986296   -1.7230168752    5.3836991153
H        0.3007080318    1.5837951321    2.0039359785
H        0.3011523341    0.3254506232   -0.1771453610
H        0.8944482665    0.3131582278    4.1096884483
H        0.8872140095   -2.1001820828   -0.1601922656
H        0.3813223426   -4.3601833402    5.6477099710
H       -0.1753399414   -4.4556781083    3.9640938689
H        0.9376229078   -5.6783478958    4.5961146937
H        2.1770291561   -4.0163526906    3.1662643795
H        2.7294352431   -3.9496045951    4.8602933038
19   
Generated by ForceBalance from scan.xyz: Frame 18 of 24
C        0.5384592885    0.4879454544    1.9855881631
C        0.4759847630   -0.2508572141    0.8006934377
C        0.9182783292   -0.1625737262    3.1585585410
C        0.7987749382   -1.6119405591    0.8437564067
C        1.2263732909   -1.5289625363    3.0983852528
C        1.6352480014   -2.2510863501    4.3604393666
C        0.6353432309   -4.5474792051    4.4537493904
C        1.9326041625   -3.7335475899    4.2740236036
N        1.1694224525   -2.2454284478    1.9619099054
O        1.6678324720   -1.6444558135    5.4251185611
H        0.2950322856    1.5472609372    1.9925027708
H        0.1849066096    0.2108274400   -0.1386067019
H        0.9833047685    0.3494355125    4.1128663784
H        0.7587030152   -2.2164836725   -0.0610862614
H        0.1589461120   -4.3131537768    5.4105246532
H       -0.0739157238   -4.3349126778    3.6484842181
H        0.8578295356   -5.6188558912    4.4350367657
H        2.3845359205   -3.9752521586    3.3100413364
H        2.6344025259   -3.9698878702    5.0784921371
19   
Generated by ForceBalance from scan.xyz: Frame 19 of 24
C        0.5085728267    0.4580596700    2.0023454842
C        0.4172629914   -0.2958989876    0.8290617858
C        0.9417265272   -0.1730860866    3.1676067269
C        0.7630953853   -1.6512606328    0.8768753197
C        1.2640001834   -1.5362224849    3.1139550055
C        1.7443444387   -2.2317520164    4.3662995098
C        0.6269813823   -4.4984149297    4.3097420404
C        1.9629716779   -3.7293556825    4.3127260483
N        1.1763831092   -2.2679299535    1.9892595402
O        1.9327715094   -1.5808412079    5.3876542583
H        0.2488263439    1.5135223421    2.0060493157
H        0.0866391127    0.1497979805   -0.1048602538
H        1.0397095015    0.3531508960    4.1112894045
H        0.7042207663   -2.2662371268   -0.0198673049
H        0.0287843871   -4.2493540016    5.1922288059
H        0.0449610634   -4.2668174988    3.4146102571
H        0.8166780703   -5.5762273871    4.3242591224
H        2.5203711319   -3.9810968921    3.4058487317
H        2.5576326118   -3.9987339117    5.1890577762
19   
Generated by ForceBalance from scan.xyz: Frame 20 of 24
C        0.4669322643    0.4296150833    2.0208718386
C        0.3653049222   -0.3290659922    0.8515493318
C        0.9398046463   -0.1878681116    3.1780089232
C        0.7386123235   -1.6770895611    0.8951067056
C        1.2806169127   -1.5463918487    3.1224277642
C        1.8197246599   -2.2227970822    4.3614633453
C        0.6013582721   -4.4681100477    4.2108908719
C        1.9454886329   -3.7333565728    4.3687978655
N        1.1805916433   -2.2835075326    2.0023452566
O        2.1777829052   -1.5371370086    5.3122604320
H        0.1869836558    1.4798643407    2.0272678211
H        0.0061719871    0.1074243545   -0.0761564180
H        1.0573322756    0.3467786894    4.1146984844
H        0.6767976500   -2.2949821273    0.0005423165
H       -0.1051574290   -4.1722563365    4.9939564923
H        0.1523839891   -4.2605167100    3.2383118545
H        0.7570658474   -5.5483042991    4.2950456045
H        2.6012567836   -4.0190979233    3.5382452399
H        2.4345159685   -4.0048656285    5.3073643329
19   
Generated by ForceBalance from scan.xyz: Frame 21 of 24
C        0.4311181365    0.4229647889    2.0518039806
C        0.3153549050   -0.3337474782    0.8824344405
C        0.9440719244   -0.1893446213    3.1944855582
C        0.7132272530   -1.6748198574    0.9123818052
C        1.3005304994   -1.5434381308    3.1279331260
C        1.8958314993   -2.2067969023    4.3478382705
C        0.5951999007   -4.4391533500    4.1405182791
C        1.9215248366   -3.7219307365    4.4418856443
N        1.1854103238   -2.2791257407    2.0088082541
O        2.4167403415   -1.5054054654    5.2076766679
H        0.1338391346    1.4683204873    2.0685420025
H       -0.0727036862    0.0993941358   -0.0351152120
H        1.0824486142    0.3482450442    4.1266282613
H        0.6452672100   -2.2899665930    0.0163735513
H       -0.2072131929   -4.0824848293    4.7959401206
H        0.2903280503   -4.2875571043    3.1050309063
H        0.7094305086   -5.5138111716    4.3153638263
H        2.6771388392   -4.0642897872    3.7225346227
H        2.2886045867   -3.9605323806    5.4432226535
19   
Generated by ForceBalance from scan.xyz: Frame 22 of 24
C        0.4192009434    0.4137446470    2.0662748442
C        0.2592871096   -0.3411176914    0.9008036558
C        0.9763875413   -0.1994214320    3.1874172563
C        0.6583809622   -1.6817420376    0.9138963150
C        1.3254806181   -1.5550759766    3.1065461623
C        1.9741728627   -2.2136451935    4.3012031980
C        0.6232176638   -4.4461130171    4.0511047655
C        1.8981770922   -3.7199752952    4.5026993425
N        1.1679860016   -2.2890472062    1.9922363937
O        2.6303206926   -1.5167033044    5.0668679282
H        0.1233084012    1.4592076148    2.0957261637
H       -0.1628323191    0.0934679620   -0.0008766770
H        1.1541308565    0.3398580226    4.1119151933
H        0.5598764258   -2.2950405961    0.0194767087
H       -0.2712398686   -4.0006153529    4.5011019794
H        0.5103307104   -4.4155403133    2.9681032883
H        0.6648702015   -5.4922737841    4.3717722847
H        2.7571745744   -4.1330059872    3.9560554268
H        2.1016643763   -3.8852477606    5.5644393133
19   
Generated by ForceBalance from scan.xyz: Frame 23 of 24
C        1.5736026804   -0.4491196109    1.3339257433
C        0.2610835173   -0.5897983212    0.8741274040
C        1.8525070745   -0.7645537442    2.6626580006
C       -0.7157451883   -1.0341195931    1.7711623142
C        0.7985816563   -1.1813553198    3.4896769145
C        1.1108425163   -1.5648136219    4.9169796436
C       -1.1807713200   -0.6082928933    5.8438877437
C        0.0790585464   -1.4602272331    6.0361248094
N       -0.4656723203   -1.3125526547    3.0561571611
O        2.2261696013   -2.0081838940    5.1666492946
H        2.3621929351   -0.1090705395    0.6676469308
H       -0.0050930746   -0.3636297277   -0.1545132915
H        2.8557267844   -0.7046043773    3.0711953131
H       -1.7455164071   -1.1678556494    1.4431450608
H       -0.9341530307    0.4071399360    5.5155295946
H       -1.8519777176   -1.0413220255    5.1036443909
H       -1.7102299322   -0.5264294336    6.7993712907
H       -0.2068295660   -2.4959675895    6.2624383445
H        0.6501842433   -1.1236094723    6.9078051773
19   
Generated by ForceBalance from scan.xyz: Frame 24 of 24
C        1.5231276878   -1.0529215853    1.1830695834
C        0.2829842906   -0.5018821615    0.8478457913
C        1.8330668790   -1.2282377349    2.5303555589
C       -0.5943065758   -0.1581284806    1.8813851260
C        0.8771562333   -0.8687624541    3.4938963708
C        1.2398076397   -1.0321466255    4.9517766509
C       -1.2968574712   -1.2627460550    5.7657080545
C        0.2062543559   -1.2354066016    6.0588031184
N       -0.3181429375   -0.3454296849    3.1772344833
O        2.4283138553   -1.0204981379    5.2542439898
H        2.2342172351   -1.3324911762    0.4099916391
H       -0.0027035547   -0.3393414877   -0.1875881823
H        2.7883680980   -1.6261494326    2.8553594244
H       -1.5640891945    0.2837012408    1.6570414311
H       -1.6595985784   -0.3013527122    5.4024278694
H       -1.5524050457   -2.0139596704    5.0132613561
H       -1.8316978346   -1.5156257254    6.6882979010
H        0.5121213448   -2.1773162770    6.5314117533
H        0.4321771520   -0.4645745797    6.8051932855
