22   
Generated by ForceBalance from scan.xyz: Frame 1 of 13
C        1.7672926227   -0.1136868097    0.1750941334
C        0.4891479403   -0.3885099739    0.6736117399
C        2.8868934628   -0.3845264829    0.9590909043
C        0.3523153784   -0.9411121263    1.9505355792
C        2.7602446371   -0.9282505904    2.2537354472
C        1.4667274528   -1.2316045601    2.7469641942
C        3.9531985060   -1.1290921218    3.0993932345
C        5.2694877430   -0.8026800157    2.8750549637
C        1.2816575551   -1.8557394781    4.1101266227
C        6.3746217888   -1.6108833429    2.2243155503
H        1.8886655696    0.3224548410   -0.8133704283
H       -0.3929519227   -0.1704648401    0.0770705501
H        3.8795729829   -0.1340376977    0.5947014742
H       -0.6417023033   -1.1623171030    2.3335161509
H        3.6689149218   -0.8371569768    4.1177429667
H        5.7057615980   -0.3738215550    3.7861798253
H        1.8715465031   -2.7718844673    4.2190593539
H        1.5985726962   -1.1742392597    4.9101130058
H        0.2322966854   -2.1058754611    4.2867204278
H        6.7239916569   -2.3236082693    2.9791296542
H        6.0514678626   -2.1781602614    1.3446014130
H        7.2330780182   -0.9919173146    1.9375475700
22   
Generated by ForceBalance from scan.xyz: Frame 2 of 13
C        1.8609934490   -0.1309989887    0.1886019108
C        0.5722556115   -0.4432071163    0.6343112616
C        2.9537243427   -0.3545986184    1.0243349781
C        0.3974653898   -0.9838324161    1.9116384502
C        2.7888643338   -0.8920198415    2.3165916628
C        1.4853483025   -1.2276810143    2.7589947210
C        3.9509288606   -1.0579426601    3.2115149556
C        5.2683485942   -0.7942056483    2.9670551580
C        1.2613107630   -1.8386312757    4.1227677246
C        6.2419611261   -1.5944965357    2.1295795955
H        2.0109714714    0.2985083488   -0.7988161135
H       -0.2893728541   -0.2623363015   -0.0032317898
H        3.9512990463   -0.0727922440    0.6988445661
H       -0.6048223547   -1.2317171002    2.2546143573
H        3.6644066883   -0.7812794946    4.2315383001
H        5.7862065935   -0.4255574864    3.8589780967
H        1.8735222119   -2.7346321528    4.2695283297
H        1.5228835256   -1.1371700616    4.9251968417
H        0.2134863798   -2.1188731436    4.2587044851
H        6.6762815825   -2.3558534423    2.7871017881
H        5.7654222989   -2.1044166841    1.2862238076
H        7.0715724569   -0.9902664094    1.7420035290
22   
Generated by ForceBalance from scan.xyz: Frame 3 of 13
C        1.9349817124   -0.1327620478    0.2044395487
C        0.6466183153   -0.5053975213    0.6001481925
C        3.0043168337   -0.2969984587    1.0843411734
C        0.4474859727   -1.0433811855    1.8752594524
C        2.8154364435   -0.8377613234    2.3709119676
C        1.5117181713   -1.2259211356    2.7664859094
C        3.9496860461   -0.9540397934    3.3096488035
C        5.2718480682   -0.8033437466    3.0405424708
C        1.2652623340   -1.8304227932    4.1295153928
C        6.1010109956   -1.6096942927    2.0681300118
H        2.1030460204    0.2980670946   -0.7794528073
H       -0.1964710744   -0.3722633669   -0.0730146889
H        3.9980536652    0.0321688392    0.7946370598
H       -0.5546022456   -1.3364014344    2.1812697425
H        3.6609289477   -0.6605004272    4.3223063640
H        5.8715015437   -0.4867035447    3.8984244372
H        1.9146849011   -2.6932744355    4.3108706003
H        1.4626462652   -1.1073368615    4.9309276592
H        0.2278288281   -2.1597721967    4.2308848988
H        6.5899886468   -2.4080874774    2.6380119258
H        5.4963448434   -2.0711180203    1.2820997354
H        6.8963030548   -1.0235635174    1.5901788482
22   
Generated by ForceBalance from scan.xyz: Frame 4 of 13
C        1.9838971727   -0.1327224706    0.2140311728
C        0.7013815835   -0.5551719787    0.5757250970
C        3.0330962995   -0.2486295800    1.1262855839
C        0.4852243257   -1.0894437467    1.8497612068
C        2.8291929341   -0.7905430184    2.4091641409
C        1.5294165543   -1.2193814340    2.7732770760
C        3.9408906428   -0.8659347598    3.3788418925
C        5.2662531168   -0.8478981216    3.1106868506
C        1.2674036064   -1.8150524345    4.1374491213
C        5.9805488523   -1.6240643588    2.0322286914
H        2.1632755654    0.2980524046   -0.7678720227
H       -0.1256938306   -0.4632447844   -0.1237026486
H        4.0204388789    0.1181886296    0.8616168819
H       -0.5132845817   -1.4184445761    2.1298106395
H        3.6636188126   -0.5550021288    4.3880746776
H        5.9088360500   -0.5881783305    3.9545091875
H        1.9435851462   -2.6502627384    4.3480832107
H        1.4155731399   -1.0748426314    4.9336496505
H        0.2404772432   -2.1817879020    4.2150054400
H        6.5176782237   -2.4526155205    2.5090021292
H        5.2893978688   -2.0411493615    1.2956385967
H        6.7310016699   -1.0264525963    1.4983014071
22   
Generated by ForceBalance from scan.xyz: Frame 5 of 13
C        2.0162421908   -0.1289817607    0.2182362408
C        0.7435692303   -0.5934439962    0.5612341405
C        3.0534326245   -0.2051574831    1.1490566470
C        0.5235442495   -1.1258463247    1.8355209162
C        2.8468140678   -0.7478440385    2.4304152912
C        1.5550413208   -1.2117479922    2.7782751051
C        3.9458931223   -0.7887228665    3.4177773021
C        5.2640742623   -0.9128678013    3.1642209043
C        1.2890764949   -1.8011905265    4.1445141000
C        5.8994606687   -1.6321136966    2.0022226780
H        2.1977961677    0.3014518747   -0.7634014507
H       -0.0738370564   -0.5358484032   -0.1530964942
H        4.0328759090    0.1906918318    0.8972916457
H       -0.4679957249   -1.4863665025    2.1011730196
H        3.6677569767   -0.4668264871    4.4220192337
H        5.9422931176   -0.7163109367    3.9955784292
H        1.9884494866   -2.6116514021    4.3751069148
H        1.4001528957   -1.0484337516    4.9348529831
H        0.2731723330   -2.1998379866    4.2090721223
H        6.4757203297   -2.4824582617    2.3862258843
H        5.1577186442   -2.0095681311    1.2949548471
H        6.6060321239   -0.9984887405    1.4498087222
22   
Generated by ForceBalance from scan.xyz: Frame 6 of 13
C        2.0344238341   -0.1369473986    0.2163645365
C        0.7689975081   -0.6238331496    0.5538769027
C        3.0654560551   -0.1841329105    1.1564804712
C        0.5492544358   -1.1468816978    1.8321514240
C        2.8595696995   -0.7188581567    2.4407434345
C        1.5735170913   -1.2004324576    2.7853007818
C        3.9528406501   -0.7386497734    3.4356488000
C        5.2544893322   -0.9988925713    3.2117394484
C        1.3060723849   -1.7779573967    4.1564087818
C        5.8636128270   -1.6272916029    1.9867068803
H        2.2157257270    0.2865813660   -0.7683018308
H       -0.0433090469   -0.5915288676   -0.1678430803
H        4.0396003834    0.2261578459    0.9072548897
H       -0.4370738437   -1.5243766408    2.0936003750
H        3.6773977932   -0.4211416789    4.4412696823
H        5.9362592563   -0.8665090068    4.0520535216
H        2.0166941714   -2.5742036996    4.4016430246
H        1.3987062951   -1.0146758415    4.9388537252
H        0.2960853373   -2.1919810575    4.2172976496
H        6.4792363828   -2.4852183695    2.2821617244
H        5.1061910446   -1.9729034253    1.2800377972
H        6.5291476325   -0.9321832910    1.4576287570
22   
Generated by ForceBalance from scan.xyz: Frame 7 of 13
C        2.0339695568   -0.1478100795    0.2117646231
C        0.7744171908   -0.6458902894    0.5537300720
C        3.0645541788   -0.1737746887    1.1536630799
C        0.5596828422   -1.1569020136    1.8377755647
C        2.8641086041   -0.6975869135    2.4429809536
C        1.5825647056   -1.1869868267    2.7936011770
C        3.9580651193   -0.7077045078    3.4381311429
C        5.2327158947   -1.0947516037    3.2469790540
C        1.3177850722   -1.7520791332    4.1704365074
C        5.8574555298   -1.6106930191    1.9790487789
H        2.2115682902    0.2666222754   -0.7774294673
H       -0.0375446848   -0.6320227352   -0.1689681106
H        4.0344066646    0.2437888276    0.8998711930
H       -0.4224773375   -1.5428839661    2.1025040797
H        3.6815868747   -0.4086210600    4.4487469321
H        5.9010622017   -1.0290574860    4.1056378894
H        2.0322352321   -2.5425486278    4.4231932658
H        1.4063567711   -0.9812855137    4.9458173136
H        0.3096817148   -2.1701945071    4.2345171062
H        6.5014960016   -2.4708532513    2.1959250084
H        5.1105756941   -1.9162187418    1.2429395367
H        6.4969507945   -0.8482820554    1.5149229202
22   
Generated by ForceBalance from scan.xyz: Frame 8 of 13
C        2.0279819666   -0.7359823615    0.0446712173
C        0.7748592917   -0.4496959640    0.5923970830
C        3.0486564740   -1.2134609858    0.8688854084
C        0.5567110107   -0.6511569129    1.9590335056
C        2.8446591691   -1.4084809087    2.2465575105
C        1.5706949533   -1.1296620772    2.7976900007
C        3.9260596001   -1.9396228117    3.1032682177
C        5.2378426250   -1.6446831955    3.0370857067
C        1.3055579560   -1.3306153548    4.2722388378
C        5.8809450618   -0.4963587654    2.3060412440
H        2.2073915755   -0.5988444750   -1.0187305227
H       -0.0293997300   -0.0790991237   -0.0381515397
H        4.0121081195   -1.4696764451    0.4381586354
H       -0.4200720640   -0.4288561376    2.3835053113
H        3.6287405977   -2.7196418067    3.8040801687
H        5.9051011346   -2.2129630103    3.6853824655
H        1.3643963106   -2.3901773707    4.5502133251
H        2.0383312453   -0.7981213411    4.8875678801
H        0.3086841156   -0.9731638533    4.5436483975
H        6.5300560547   -0.8419911886    1.4904359742
H        5.1431698963    0.1885224919    1.8827739669
H        6.5200990074    0.0663117573    2.9968335036
22   
Generated by ForceBalance from scan.xyz: Frame 9 of 13
C        2.0103810369   -0.7403303496    0.0451929911
C        0.7482745875   -0.4757559151    0.5838645272
C        3.0363737572   -1.1903818676    0.8775191534
C        0.5275044038   -0.6690785927    1.9511755870
C        2.8291081864   -1.3790193285    2.2561006250
C        1.5478820852   -1.1167382625    2.7988870149
C        3.9150337739   -1.8907034038    3.1183492119
C        5.2400121978   -1.6998802725    2.9590494615
C        1.2814849058   -1.3068959272    4.2745828114
C        5.9150569331   -0.5078940355    2.3307756808
H        2.1920026374   -0.6092099835   -1.0186044622
H       -0.0604643779   -0.1288947270   -0.0543931936
H        4.0062611846   -1.4330967199    0.4534839241
H       -0.4557714610   -0.4633085079    2.3689344226
H        3.6124861218   -2.6738095697    3.8145322770
H        5.8997079319   -2.3204381075    3.5668904111
H        1.3576069855   -2.3625668251    4.5633334433
H        2.0027683283   -0.7556803085    4.8869959615
H        0.2778600687   -0.9639558189    4.5396920957
H        6.6078042530   -0.7909847860    1.5271183227
H        5.1961133990    0.2061365928    1.9231572735
H        6.5138652388    0.0018186914    3.0951284012
22   
Generated by ForceBalance from scan.xyz: Frame 10 of 13
C        1.9775771748   -0.7363058156    0.0413813186
C        0.7047820485   -0.5181845543    0.5767003279
C        3.0190932283   -1.1404429102    0.8770571819
C        0.4906218253   -0.7082822104    1.9453796542
C        2.8177360668   -1.3290617652    2.2572417952
C        1.5277283791   -1.1060352766    2.7976619808
C        3.9198344465   -1.7996901563    3.1208236859
C        5.2469771090   -1.7224261708    2.8729396210
C        1.2683926382   -1.2881930974    4.2754832061
C        5.9987333743   -0.5274471151    2.3412925180
H        2.1548445217   -0.6065127471   -1.0233318808
H       -0.1165694168   -0.2101897024   -0.0653418340
H        3.9974219390   -1.3511268957    0.4552641073
H       -0.5002862430   -0.5376130286    2.3609187245
H        3.6207171578   -2.5747269339    3.8292945267
H        5.8709946662   -2.4002639923    3.4590537590
H        1.3841569598   -2.3367709334    4.5769400180
H        1.9675901548   -0.7026060674    4.8815951704
H        0.2524845022   -0.9802102260    4.5365652734
H        6.7353775880   -0.7912340813    1.5711108229
H        5.3302842112    0.2320515071    1.9283304550
H        6.5571923995   -0.0802368701    3.1722345120
22   
Generated by ForceBalance from scan.xyz: Frame 11 of 13
C        1.9278998742   -0.7242146450    0.0340886669
C        0.6474922775   -0.5615914725    0.5720863648
C        2.9883152568   -1.0774698894    0.8680677030
C        0.4463867450   -0.7515567232    1.9426559061
C        2.7983672414   -1.2711830044    2.2498843775
C        1.5027691956   -1.0949566016    2.7949678401
C        3.9214517437   -1.6985684586    3.1090830210
C        5.2419759419   -1.7308743493    2.7963906330
C        1.2564637292   -1.2721034073    4.2754569854
C        6.1077973731   -0.5631689280    2.3833631955
H        2.0960825221   -0.5917787185   -1.0317945058
H       -0.1890553361   -0.2963873545   -0.0693930808
H        3.9744862384   -1.2473559792    0.4456359752
H       -0.5497676052   -0.6217079695    2.3604136251
H        3.6085388477   -2.4668266906    3.8212102209
H        5.8209017977   -2.4671430220    3.3608163511
H        1.4169118043   -2.3118125065    4.5875014278
H        1.9320246237   -0.6513769341    4.8733504023
H        0.2294087178   -1.0042490808    4.5370645255
H        6.9015505539   -0.8434357095    1.6793348538
H        5.5304198363    0.2541889337    1.9418205208
H        6.6000545141   -0.1854555672    3.2870264868
22   
Generated by ForceBalance from scan.xyz: Frame 12 of 13
C        1.8557395946   -0.7113838702    0.0203267152
C        0.5706821778   -0.6303391585    0.5671837040
C        2.9418077053   -0.9897035715    0.8482459391
C        0.3930701726   -0.8219738621    1.9405448920
C        2.7739010709   -1.1922928157    2.2327078900
C        1.4748268508   -1.0887965844    2.7888201316
C        3.9266234170   -1.5531267161    3.0810851179
C        5.2385905003   -1.6996196582    2.7315325726
C        1.2488802206   -1.2632799205    4.2726865903
C        6.2506737079   -0.6176219663    2.4240520013
H        2.0074550956   -0.5735573710   -1.0473619936
H       -0.2862935890   -0.4259221793   -0.0695096850
H        3.9350675261   -1.0968238661    0.4210738861
H       -0.6062089678   -0.7525724732    2.3651496799
H        3.6155598676   -2.3059267195    3.8129124821
H        5.7300367304   -2.4939313376    3.3035095883
H        1.4749873131   -2.2873896703    4.5958709971
H        1.8871199071   -0.5947041783    4.8598833503
H        0.2085605093   -1.0564742680    4.5370991072
H        7.0652720914   -0.9642693298    1.7760690444
H        5.8040807531    0.2716729100    1.9679081955
H        6.7005125232   -0.3219606426    3.3784364741
22   
Generated by ForceBalance from scan.xyz: Frame 13 of 13
C        1.7611319123   -0.7165978830    0.0004955161
C        0.4848889121   -0.6938765096    0.5735362040
C        2.8765677696   -0.9295988540    0.8079407813
C        0.3461205149   -0.8761069758    1.9527300021
C        2.7473863716   -1.1288996072    2.1976765631
C        1.4567785548   -1.0785301431    2.7810079868
C        3.9329503842   -1.4362005917    3.0214303385
C        5.2415866369   -1.6451174488    2.6562640925
C        1.2707831159   -1.2424981449    4.2711515484
C        6.3814341860   -0.6558966561    2.5141390567
H        1.8837538386   -0.5832517826   -1.0715096736
H       -0.3944151394   -0.5409768533   -0.0469092815
H        3.8662431412   -0.9907548398    0.3632642040
H       -0.6461153378   -0.8496181321    2.3981985933
H        3.6240434480   -2.2026542084    3.7426803223
H        5.6501885143   -2.4983354344    3.2125599056
H        1.5531592499   -2.2501298521    4.6025130628
H        1.8881281533   -0.5361300947    4.8360261779
H        0.2274154615   -1.0824564195    4.5552031520
H        7.2245336935   -1.0671217750    1.9463999286
H        6.0899596208    0.2951989817    2.0552289729
H        6.7408741707   -0.4483934477    3.5278036199
