25

C      6.92744    0.34495    2.28767
C      6.62146    1.34298    3.21652
C      5.97751    0.01959    1.32021
C      0.95769   -0.99067    1.16757
C      1.35599    0.75224    2.76862
C      5.37509    1.97548    3.13579
C      0.24249   -1.66625    2.15395
C      1.52785    0.25428    1.47476
C      4.75731    0.70785    1.32482
C      0.61393   -0.01924    3.66763
C      3.71248    0.36302    0.29813
C      2.33762    1.01145    0.44133
N      4.45659    1.67107    2.21339
N      0.06623   -1.18883    3.39905
O      3.94929   -0.43952   -0.59352
Br     0.36330    0.66885    5.45552
H      7.88467   -0.16866    2.31939
H      7.32783    1.62990    3.99015
H      6.14985   -0.74615    0.57110
H      1.07444   -1.42566    0.17911
H      1.79585    1.69614    3.06681
H      5.10649    2.75724    3.84423
H     -0.21329   -2.63245    1.94699
H      1.85354    0.95116   -0.53564
H      2.44486    2.05419    0.74195
