34

C      0.50433   -1.83400   -1.49555
C      1.29927   -0.81590   -0.95434
C      0.81394   -3.18427   -1.28926
C      2.43081   -1.12787   -0.18765
C     -1.37094   -6.68746   -2.85380
C     -2.09405   -9.40484   -3.32565
C      1.94215   -3.50094   -0.52590
C     -0.59071   -7.73793   -2.29408
C     -2.46324   -7.02206   -3.61364
C     -2.82074   -8.35444   -3.84709
C      2.71929   -2.46818    0.00429
C     -0.97210   -9.06965   -2.54465
C      2.53610   -4.81065   -0.12515
C      0.57849   -7.42038   -1.47960
C     -4.30473   -7.04012   -4.90690
N      3.61534   -4.79756    0.60965
N      0.92138   -6.19969   -1.24099
N      2.02931   -6.02710   -0.47125
O      5.35573   -2.91639    0.26743
O      3.93330   -2.91912    2.35853
O     -3.35352   -6.18754   -4.24692
O     -3.94087   -8.40853   -4.63013
S      4.08312   -3.19860    0.93072
Cl    -0.05367  -10.41792   -1.88447
H     -0.36923   -1.57346   -2.08656
H      1.03800    0.22414   -1.12880
H      0.19925   -3.96895   -1.70699
H      3.05768   -0.35124    0.24004
H     -1.09369   -5.65600   -2.67479
H     -2.36859  -10.43787   -3.50491
H      1.15542   -8.25771   -1.07776
H     -5.30521   -6.84777   -4.50737
H     -4.25974   -6.86903   -5.98696
H      2.54846   -6.83403   -0.11918
