41

C     -2.49797   -1.29001    7.16639
C     -3.44014   -1.72271    6.22944
C     -1.22416   -0.90014    6.73618
C     -3.10712   -1.76669    4.87118
C     -0.89767   -0.94431    5.37964
C     -1.83490   -1.38020    4.43290
C     -1.42334   -0.03943    2.31477
C      0.01881    1.90141    0.09955
C     -0.09535   -0.85190   -0.96117
C     -1.41656    1.33584    0.31519
C     -1.21621   -1.12775    0.05382
C      2.54099    1.58369    0.36579
C      1.13932    0.93949    0.52276
C      1.19520   -0.36578   -0.30309
C     -1.48633   -1.43066    2.96462
N      2.96428    1.50660   -1.04421
N     -1.44492    0.01338    0.94095
O     -1.35445    0.98802    2.98923
O      1.86122    0.17346   -2.94116
O      3.56420   -0.98864   -1.44070
S      2.47381   -0.02919   -1.62002
H     -2.75238   -1.25642    8.22266
H     -4.43201   -2.02755    6.55344
H     -0.48699   -0.55919    7.45871
H     -3.84612   -2.10441    4.14718
H      0.08825   -0.62584    5.05059
H      0.14075    2.18609   -0.95218
H      0.12928    2.81516    0.69044
H      0.09992   -1.77628   -1.51446
H     -0.42220   -0.12407   -1.70682
H     -1.98312    2.00816    0.95747
H     -1.94710    1.25745   -0.63775
H     -2.13457   -1.36973   -0.49826
H     -0.95653   -2.00251    0.64845
H      2.54844    2.62982    0.67860
H      3.27943    1.04721    0.96883
H      0.99536    0.69093    1.57683
H      1.65538   -1.16140    0.28902
H     -0.50598   -1.90707    2.83209
H     -2.20831   -2.05669    2.43299
H      2.49616    2.20313   -1.62405
