29

C      1.97543   -3.03343    0.81718
C      1.08665   -1.95471    0.79818
C      2.68916   -3.32713    1.98526
C      0.89083   -1.18300    1.94668
C      2.52103   -2.53868    3.12402
C     -0.97095   -3.57041    3.09146
C     -0.47207   -4.83522    2.78989
C     -0.09069   -3.77338    5.35121
C      1.60567   -1.47317    3.11947
C     -0.75531   -3.04899    4.36417
C      0.23645   -5.56158    3.75087
C      0.41962   -5.03384    5.04075
C      1.40857   -0.66575    4.34452
C      0.27272   -0.50864    5.03570
O     -1.93912   -0.83578    3.52714
O     -1.96636   -1.36169    6.03220
S     -1.28013   -1.36432    4.73147
Cl     0.89767   -7.11068    3.30738
Cl     1.29493   -5.91191    6.26762
H      2.11494   -3.64223   -0.07221
H      0.53313   -1.71900   -0.10689
H      3.37452   -4.16991    2.00905
H      0.17621   -0.36644    1.94353
H      3.07494   -2.76962    4.03057
H     -1.49323   -2.98126    2.34670
H     -0.60502   -5.25650    1.79915
H      0.05120   -3.36180    6.34513
H      2.28835   -0.15582    4.73962
H      0.19890    0.11146    5.92503
