32

C      8.56819   -3.95418    2.56480
C      9.05577    4.19482    3.34914
C      7.84165    4.70744    3.81513
C      4.92377   -6.04007    5.73822
C      9.16628    2.83113    3.09025
C      6.75611    3.85098    4.00928
C      5.26540   -4.69129    5.48189
C      5.70218   -6.91729    5.01335
C      8.07580    1.96433    3.29089
C      6.84078    2.47370    3.75554
C      6.30237   -4.54572    4.56303
C      8.28121    0.53646    2.98769
C      8.13842   -1.56343    3.02887
C      6.81432   -3.27619    4.15153
C      7.81418   -2.96413    3.27014
C      5.61511    1.61513    3.97165
N      9.17139   -4.77712    2.00073
N      7.58813   -0.50780    3.57231
N      9.20341    0.14426    2.12431
O      9.11508   -1.26016    2.15445
S      6.85575   -6.11891    4.01412
H      9.90887    4.84937    3.19342
H      7.73824    5.76897    4.02511
H      4.14378   -6.35647    6.42196
H     10.10407    2.41636    2.73450
H      5.81230    4.25934    4.36262
H      4.77975   -3.83817    5.94541
H      5.65680   -7.99958    5.01521
H      6.32837   -2.42032    4.61555
H      5.40591    0.98027    3.10634
H      5.74514    0.94458    4.82526
H      4.74162    2.24649    4.15504
