41

C      0.32121   -2.31062    3.99281
C     -0.79310   -2.26537    3.14725
C      1.44001   -3.05875    3.61736
C     -0.77681   -2.93774    1.92322
C      1.45534   -3.72857    2.38917
C      0.35910   -3.65739    1.51901
C      0.14214   -3.19192   -0.93145
C      0.48621    0.07658   -1.55297
C      2.72657   -0.91973    0.01409
C      0.85417   -1.27016   -2.24080
C      2.47364   -2.28094   -0.66361
C     -0.28439    1.33101    0.50832
C      0.24702   -0.02608   -0.04237
C      1.50128   -0.43551    0.78606
C      0.41086   -4.26660    0.12811
N      0.26178    1.47745    1.87112
N      1.16333   -2.35204   -1.30350
O     -0.99451   -3.07067   -1.39890
O      2.63406    1.99998    0.87194
O      2.44721    0.77190    3.07969
S      1.91064    1.05493    1.74608
H      0.32264   -1.75867    4.92793
H     -1.66760   -1.68728    3.43339
H      2.30942   -3.10063    4.26752
H     -1.63474   -2.88345    1.25782
H      2.33832   -4.29500    2.09947
H      1.26269    0.82555   -1.73904
H     -0.42998    0.46342   -2.01189
H      3.57370   -1.03412    0.69900
H      3.02191   -0.16628   -0.71918
H      0.02635   -1.61415   -2.85801
H      1.72689   -1.13523   -2.88790
H      3.25493   -2.45478   -1.41473
H      2.55485   -3.07131    0.07613
H      0.03061    2.15493   -0.14463
H     -1.37492    1.32402    0.56656
H     -0.51317   -0.78461    0.14509
H      1.22112   -1.15674    1.55206
H      1.36064   -4.78304   -0.03225
H     -0.39110   -4.99681   -0.00108
H      0.17666    2.42220    2.24877
