43

C     -5.49899    2.47046   -6.78789
C     -6.19083    2.74585   -5.58953
C     -4.25952    1.83283   -6.75724
C     -5.67705    2.38244   -4.34342
C     -3.73200    1.48015   -5.51163
C     -4.43764    1.73363   -4.32717
C     -2.46243    0.83148   -5.14464
C     -1.16938    0.70432   -1.68398
C      0.06676   -2.16755   -0.08830
C      0.40702   -1.19603   -1.22478
C      0.22911    0.70392    0.32130
C     -0.10240   -0.22319    1.50313
C      0.48885   -1.64288    1.29878
C      0.30433    0.42826    2.82836
C      2.00901   -1.69287    1.47013
C     -1.62230   -0.01805   -2.96093
N     -3.73548    1.22232   -3.22273
N     -2.48100    0.81807   -3.75255
N     -0.17775    0.11777   -0.95682
O     -1.55834    0.36581   -5.83980
O     -1.71190    1.76226   -1.34181
O     -0.01200   -2.53620    2.31174
H     -5.93861    2.76294   -7.73720
H     -7.15320    3.24904   -5.63682
H     -3.70317    1.61760   -7.66513
H     -6.22311    2.58822   -3.42686
H     -1.01983   -2.32966   -0.08836
H      0.54025   -3.13832   -0.26818
H      1.49395   -1.08251   -1.31987
H      0.04842   -1.58901   -2.17413
H     -0.28456    1.65849    0.42797
H      1.30769    0.90458    0.28668
H     -1.19623   -0.34521    1.50350
H      1.35762    0.72767    2.82326
H      0.15228   -0.26155    3.66262
H     -0.29287    1.32747    3.01168
H      2.28277   -1.44334    2.49720
H      2.52300   -1.00047    0.79887
H      2.36915   -2.70467    1.26361
H     -2.13284   -0.95299   -2.68647
H     -0.78227   -0.26808   -3.61312
H     -3.55947    1.87741   -2.45751
H     -0.98041   -2.55885    2.24039
