25

C     -0.10199   -2.61235   -5.03589
C     -0.41208   -1.85579   -3.90494
C     -0.35292   -2.11580   -6.31890
C     -0.99062   -0.58848   -4.03317
C     -0.93258   -0.85841   -6.43953
C     -1.26468   -0.10251   -5.31732
C      2.64535    1.85563   -3.46387
C      2.20801    3.13832   -2.75331
C      0.67650    1.42397   -2.43782
C     -0.81878    1.42737   -2.72224
O      1.40759    1.15585   -3.61992
O      1.06810    2.72180   -1.98314
O     -1.33841    0.09798   -2.89598
F     -1.20126   -0.34671   -7.66178
F     -1.85582    1.10144   -5.48760
H      0.34714   -3.59416   -4.92005
H     -0.21114   -2.22539   -2.90434
H     -0.11386   -2.67894   -7.21526
H      3.07309    2.01620   -4.45485
H      3.34343    1.26976   -2.84978
H      2.96787    3.53934   -2.07661
H      1.90406    3.91411   -3.46549
H      0.92469    0.68256   -1.66132
H     -1.02540    2.06323   -3.58549
H     -1.33774    1.82333   -1.84791
