39

C      5.97196   -2.55308    5.04045
C      3.02566    2.31033   -4.79678
C      4.81172   -2.92769    4.39344
C      2.71272    1.50638   -3.69953
C      6.43566   -1.21679    4.97336
C      2.20760   -1.28911    2.26429
C      2.17503    3.37398   -5.11154
C      0.78701    2.88129   -3.35937
C      4.07485   -1.96699    3.65558
C      1.56365    1.78597   -2.95024
C      4.51698   -0.60990    3.56981
C      2.86873   -2.27832    2.95991
C      5.72047   -0.28692    4.25616
C      2.74547    0.02508    2.25648
C      0.60497    1.62787   -0.49469
C      2.23844    0.33968   -0.84662
C      1.15353    0.94341   -1.77588
C      2.00622    1.12774    1.52455
N      1.07050    3.66334   -4.40904
N      3.86198    0.36327    2.87578
N      1.36396    0.64435    0.31330
O      2.43343   -3.56988    3.02806
F      6.16924    0.98418    4.19625
H      6.54141   -3.28281    5.60893
H      3.91175    2.12232   -5.39684
H      4.45037   -3.94919    4.44030
H      3.35682    0.67340   -3.42658
H      7.34677   -0.90982    5.47806
H      1.29134   -1.48234    1.71188
H      2.38955    4.02199   -5.96003
H     -0.11426    3.14272   -2.80456
H      0.98951    2.65497   -0.39356
H     -0.47663    1.62533   -0.32368
H      2.49603   -0.71805   -0.96326
H      3.16162    0.94053   -0.85015
H      0.46366    0.15763   -2.10135
H      1.22321    1.52420    2.18508
H      2.71948    1.94683    1.33664
H      1.60634   -3.65112    2.52517
