41

C      0.48575   -6.07823    2.78998
C      0.20001   -4.79518    3.27108
C      0.27140   -6.37313    1.44044
C     -0.29717   -3.81387    2.41046
C     -0.22577   -5.38820    0.58064
C     -0.51499   -4.10397    1.05599
C      0.04458   -2.07674   -0.34758
C      0.46453    1.21607   -1.93201
C     -2.13622    0.66827   -0.59440
C      0.69962   -0.29423   -1.89602
C     -1.70331   -0.60067   -1.38957
C      1.43538    1.60866    0.43194
C      0.25727    1.88120   -0.56536
C     -1.06600    1.48764    0.14514
C     -1.04602   -3.03899    0.12671
N      1.10830    0.50722    1.34847
N     -0.33190   -1.02128   -1.14976
O      1.23154   -2.23906   -0.04696
O     -1.13460   -0.62147    1.95738
O     -0.63384    1.73128    2.77193
S     -0.52118    0.69681    1.74024
H      0.87134   -6.84123    3.46169
H      0.36513   -4.55878    4.31940
H      0.49039   -7.36685    1.05742
H     -0.51312   -2.81600    2.78154
H     -0.38638   -5.62200   -0.47023
H      1.33770    1.67226   -2.41365
H     -0.38762    1.45492   -2.57830
H     -2.64327    1.35449   -1.28233
H     -2.88424    0.38231    0.15093
H      0.72968   -0.67367   -2.92738
H      1.65983   -0.53382   -1.44178
H     -2.38178   -1.41686   -1.15281
H     -1.81586   -0.41442   -2.46312
H      2.35566    1.35527   -0.09805
H      1.62857    2.50045    1.03288
H      0.22492    2.96019   -0.74275
H     -1.55692    2.39035    0.51414
H     -1.49539   -3.50029   -0.76124
H     -1.82774   -2.46608    0.62809
H      1.28297   -0.42913    0.96633
