29

C      2.94317   -5.81358   -1.32299
C      2.32238   -4.71800   -1.92920
C      3.54987   -5.66482   -0.07068
C      2.28256   -3.48204   -1.27873
C      3.53986   -4.42430    0.56840
C      0.58400   -4.04947    2.74936
C      0.76987   -5.38738    3.08438
C     -0.09085   -4.71273    0.50738
C      2.88557   -3.32987   -0.02019
C      0.17796   -3.73008    1.45292
C      0.53934   -6.39078    2.13498
C      0.09093   -6.05432    0.84859
C      2.82497   -2.03679    0.69655
C      1.72254   -1.38831    1.09311
O     -0.43816   -1.95927   -0.41758
O     -0.69049   -1.28584    2.03913
S      0.03415   -1.99749    0.97501
Cl     0.82892   -8.04830    2.58524
Cl    -0.23168   -7.27503   -0.35193
H      2.94747   -6.78057   -1.81762
H      1.84898   -4.82860   -2.90093
H      4.02647   -6.51557    0.40849
H      1.76820   -2.64071   -1.73147
H      4.00563   -4.31200    1.54437
H      0.76019   -3.26826    3.48190
H      1.09748   -5.66746    4.08024
H     -0.41485   -4.43541   -0.48880
H      3.77784   -1.56932    0.94901
H      1.74726   -0.43330    1.61100
