41

C     -0.79423   -5.16940    5.80785
C     -1.68529   -4.17433    5.39837
C      0.11557   -5.70369    4.88731
C     -1.66571   -3.72004    4.07479
C      0.13197   -5.24580    3.56900
C     -0.76075   -4.25004    3.14765
C      0.51692   -2.98485    1.34503
C      1.60151   -0.17285    0.34746
C     -1.29324   -0.95844   -0.73159
C      1.73019   -1.59170   -0.22597
C     -0.58341   -2.31969   -0.80561
C     -0.07000    1.74436    0.55750
C      0.66058    0.79048   -0.41190
C     -0.43126    0.16742   -1.30522
C     -0.75681   -3.76075    1.71963
N     -1.11064    2.46490   -0.20296
N      0.56602   -2.42969    0.08358
O      1.46379   -2.87957    2.12269
O     -2.88834    1.38419   -1.72625
O     -0.79883    2.37147   -2.78150
S     -1.44480    1.66225   -1.67616
H     -0.80663   -5.52623    6.83455
H     -2.39574   -3.75274    6.10495
H      0.81504   -6.47494    5.19977
H     -2.36426   -2.94572    3.76297
H      0.85271   -5.65258    2.86443
H      1.28520   -0.27832    1.38938
H      2.59787    0.28032    0.38017
H     -2.22237   -1.01491   -1.30786
H     -1.57818   -0.74688    0.30481
H      1.86140   -1.57670   -1.31314
H      2.60536   -2.07188    0.21222
H     -1.29559   -3.11251   -0.58303
H     -0.24209   -2.49468   -1.83349
H     -0.51753    1.16717    1.37610
H      0.63622    2.45847    0.99039
H      1.26853    1.40741   -1.08156
H     -0.02665   -0.12172   -2.27860
H     -0.85594   -4.60764    1.02894
H     -1.63244   -3.12612    1.55194
H     -1.98595    2.58871    0.30055
