29

C      0.39963    0.22507    0.73486
C      0.67407    0.95990    1.89452
C      0.64870   -1.15012    0.70793
C      1.20443    0.32277    3.01674
C      1.14872   -1.79765    1.84090
C     -1.83696   -1.67459    3.08501
C     -2.48971   -0.47676    2.80453
C     -1.35057   -0.87177    5.33030
C      1.42689   -1.06420    3.00499
C     -1.25875   -1.84682    4.33961
C     -2.55547    0.53324    3.76816
C     -1.99291    0.33199    5.04052
C      1.95613   -1.73570    4.21346
C      1.36530   -2.70334    4.92550
O     -0.69833   -3.86128    5.99038
O     -0.36195   -4.18031    3.47283
S     -0.30034   -3.33584    4.67573
Cl    -3.32480    2.03872    3.34941
Cl    -2.05842    1.56714    6.27037
H     -0.00398    0.72452   -0.14193
H      0.47383    2.02740    1.92461
H      0.44181   -1.72515   -0.19075
H      1.41525    0.89498    3.91679
H      1.31059   -2.87062    1.83279
H     -1.74895   -2.45387    2.33704
H     -2.92900   -0.30612    1.82749
H     -0.91285   -1.02941    6.31059
H      2.92664   -1.39398    4.57609
H      1.81991   -3.15979    5.80063
