39

C      2.30668   -6.22790    0.26923
C      1.77193   -6.00800   -1.00973
C      1.47112   -6.36261    1.38303
C      0.38772   -5.91785   -1.20613
C     -5.73501   -8.71810    0.75759
C      0.09309   -6.27061    1.19104
C     -4.66549   -8.19103    1.55752
C     -0.41844   -6.04738   -0.08331
C     -5.39386   -9.98921    0.37334
C     -3.69312   -9.19328    1.66071
C     -0.95219   -6.37539    2.24688
C     -4.69635   -6.82070    2.05835
C     -6.12722  -10.96232   -0.49409
C     -2.41503   -9.28862    2.43174
C     -3.44786  -11.54115    0.82516
C     -3.41828   -6.06374    2.45985
N     -4.14445  -10.26984    0.93383
N     -2.21770   -6.33687    1.66396
O     -0.75099   -6.48774    3.44699
O     -5.74678   -6.18740    2.15412
O     -2.72819   -4.64740   -0.24851
O     -2.75609   -7.11694   -0.78942
S     -2.20314   -5.99472   -0.03957
H      3.38390   -6.29321    0.39273
H      2.43910   -5.90491   -1.86078
H      1.86513   -6.53222    2.38050
H     -0.03415   -5.75072   -2.19241
H     -6.62795   -8.17570    0.47934
H     -5.57442  -11.20184   -1.41121
H     -6.34331  -11.90596    0.02186
H     -7.08176  -10.52300   -0.79214
H     -2.33959  -10.25033    2.95098
H     -1.53581   -9.19903    1.78073
H     -2.34488   -8.51193    3.19046
H     -2.38121  -11.37748    0.65599
H     -3.57355  -12.14742    1.73016
H     -3.84291  -12.10051   -0.02262
H     -3.14929   -6.30944    3.49133
H     -3.66226   -4.99897    2.41668
