28

C      1.34114   -2.88797   -1.30040
C      1.12405   -3.19517   -2.64630
C     -0.14643   -1.00314   -1.49419
C      0.69965   -1.79216   -0.70521
C     -0.37710   -1.28871   -2.84503
C      0.26383   -2.40583   -3.39785
C     -2.27136    1.91899   -7.27356
C     -3.28594    0.89672   -6.77121
C     -1.69428    1.19325   -5.15536
C      0.89677   -1.47558    0.76005
C     -0.89269   -0.06629   -4.84942
O     -1.17456    1.74575   -6.36641
O     -3.07692    0.93702   -5.35576
O     -1.25558   -0.49021   -3.52664
F      0.03526   -2.73846   -4.70001
H      2.01194   -3.50952   -0.71303
H      1.60301   -4.04662   -3.12085
H     -0.65283   -0.13764   -1.07441
H     -1.91179    1.72884   -8.28768
H     -2.66333    2.94185   -7.20415
H     -4.32639    1.16310   -6.96762
H     -3.08115   -0.10560   -7.17126
H     -1.61432    1.91004   -4.32929
H      0.89232   -0.39645    0.94069
H      0.09416   -1.91261    1.36621
H      1.84479   -1.87656    1.12991
H      0.17557    0.17312   -4.89434
H     -1.11705   -0.84159   -5.58648
