18

C      0.01522   -1.26386   -1.24466
C     -0.40216   -0.65247   -0.06381
C      0.88297   -2.36242   -1.21589
C      0.90802   -2.24463    1.21694
C      0.04246   -1.13949    1.17628
C      1.31521   -2.83714    0.02177
C     -0.39177   -0.49164    2.43788
N     -1.53343    0.12111    2.43251
N      0.41183   -0.63716    3.55833
O     -1.76911    0.71012    3.70962
Br     2.49215   -4.35274    0.08678
H     -0.32798   -0.88273   -2.20269
H     -1.06838    0.20313   -0.08492
H      1.21377   -2.83600   -2.13438
H      1.23017   -2.65626    2.16719
H      1.40866   -0.63269    3.37873
H      0.13619   -0.04202    4.33228
H     -2.64277    1.11413    3.59167
