21   
Generated by ForceBalance from scan.xyz: Frame 1 of 11
C        1.0514662163   -5.4026970035   -1.7571314506
C        0.7537529083   -4.2605908847   -0.9599448425
C        1.8198383271   -4.9522741831   -2.8021338439
C        1.3646989204   -3.1784419858   -1.5703821250
C       -0.7674291545   -0.7486362906    1.2465797136
C        0.4721977766   -1.1364532331   -0.4696837995
C        0.3176528879    0.3426974594   -0.3983702189
C        1.1917724812   -1.7681511700   -1.4365224319
C       -0.9465580244    1.7932587877    1.2471455572
N       -0.2342699441   -1.7367745723    0.5877057278
N       -0.4950012306    0.5100247138    0.7409135767
O        0.7524789993    1.2452461716   -1.1040373159
O        2.0539509734   -3.6202158261   -2.6875481265
H        0.7303003657   -6.4231654017   -1.5945569095
H        0.1346497597   -4.1950519216   -0.0768007280
H        2.2992716996   -5.4468865110   -3.6354605053
H       -1.3858839660   -0.8691627342    2.1315373599
H        1.6774314835   -1.1351563738   -2.1758889966
H       -0.5937166546    1.9583851315    2.2699718623
H       -2.0386718659    1.8637790579    1.2237613156
H       -0.5266691349    2.5632067559    0.5970975770
21   
Generated by ForceBalance from scan.xyz: Frame 2 of 11
C        0.9405554003   -5.3382752178   -1.8018975546
C        0.8125776365   -4.2358294017   -0.9116730414
C        1.7345346137   -4.9052158166   -2.8367618850
C        1.5410129867   -3.1872362725   -1.4581421064
C       -0.7079693768   -0.7461783587    1.2737292136
C        0.5496642304   -1.1464198903   -0.4265394907
C        0.3175567417    0.3236372130   -0.4231097411
C        1.2979221700   -1.7805717162   -1.3699798952
C       -1.0168128382    1.7804159160    1.1604915799
N       -0.1247850802   -1.7342575472    0.6584476543
N       -0.5005269550    0.5004571778    0.7112895286
O        0.7030807656    1.2151385616   -1.1706343684
O        2.1697079129   -3.6418203821   -2.6095407691
H        0.4847561787   -6.3156521190   -1.7125562207
H        0.1951354158   -4.1522649290   -0.0287390102
H        2.1454506509   -5.3981795412   -3.7073216836
H       -1.3199812943   -0.8586411608    2.1641926133
H        1.7516368471   -1.1506354307   -2.1321602012
H       -0.6709245791    2.0099846833    2.1732238708
H       -2.1111807145    1.7935800881    1.1387691604
H       -0.6384583636    2.5404358304    0.4742629533
21   
Generated by ForceBalance from scan.xyz: Frame 3 of 11
C        0.8346677600   -5.2563429916   -1.8465534787
C        0.8627786318   -4.2241692458   -0.8710951563
C        1.6613316278   -4.8407776423   -2.8654262866
C        1.7039375625   -3.2192547249   -1.3517419105
C       -0.6504286701   -0.7673822059    1.3056724593
C        0.6153418855   -1.1832829317   -0.3850458807
C        0.3077040163    0.2702907103   -0.4495983044
C        1.3873793461   -1.8201392701   -1.3075210863
C       -1.0843882490    1.7329215976    1.0782524840
N       -0.0223041332   -1.7528890492    0.7315608918
N       -0.5089995022    0.4600579323    0.6843746074
O        0.6403704706    1.1444168813   -1.2422153315
O        2.2815438414   -3.6863133725   -2.5320710502
H        0.2507426738   -6.1672250403   -1.8276656276
H        0.2461410617   -4.1231282053    0.0109584831
H        2.0080773707   -5.3216734536   -3.7706864700
H       -1.2508415305   -0.8687225013    2.2052844086
H        1.8053415285   -1.1965530557   -2.0952605779
H       -0.7424827506    2.0267643568    2.0756387053
H       -2.1782526133    1.6918406292    1.0669224075
H       -0.7490627014    2.4771623006    0.3534129074
21   
Generated by ForceBalance from scan.xyz: Frame 4 of 11
C        0.7380131734   -5.1375870895   -1.8777894053
C        0.9209620133   -4.2189389556   -0.8132495643
C        1.5851580116   -4.7223699969   -2.8831505622
C        1.8511690505   -3.2522636749   -1.2300715925
C       -0.5916920181   -0.7817407359    1.3491866946
C        0.6816471021   -1.2175272771   -0.3311061389
C        0.3139494268    0.2164974605   -0.4573630402
C        1.4738106457   -1.8619670342   -1.2312302626
C       -1.1268345627    1.6867301976    1.0168843935
N        0.0733454245   -1.7645515017    0.8128721976
N       -0.5025920736    0.4220651245    0.6747871108
O        0.6043501278    1.0691677902   -1.2895494046
O        2.3781442191   -3.7225994998   -2.4459580082
H        0.0377113650   -5.9610586284   -1.9263082474
H        0.3206856542   -4.1138943471    0.0803526276
H        1.8556046703   -5.1621416591   -3.8351373075
H       -1.1837617363   -0.8688798097    2.2557442349
H        1.8647727730   -1.2538695130   -2.0445151548
H       -0.7924771180    2.0370088796    1.9984942821
H       -2.2182855995    1.6019869726    1.0141990531
H       -0.8247080826    2.4114692782    0.2584302556
21   
Generated by ForceBalance from scan.xyz: Frame 5 of 11
C        0.6523111591   -4.9987262874   -1.9159628159
C        0.9298826040   -4.1909912925   -0.7859140109
C        1.5692544012   -4.6213187856   -2.8776328177
C        1.9771074614   -3.2970040715   -1.1198603168
C       -0.5226344620   -0.7893009554    1.4092836808
C        0.7259448898   -1.2625108941   -0.2800807494
C        0.2932663426    0.1435885594   -0.4748341470
C        1.5201247142   -1.9209853300   -1.1676553929
C       -1.1707966246    1.6323631665    0.9565958400
N        0.1707546968   -1.7712234712    0.9085053561
N       -0.5018318420    0.3775231640    0.6677102574
O        0.5232969069    0.9613652805   -1.3600791047
O        2.4863509353   -3.7947495664   -2.3422064755
H       -0.1516068186   -5.7129733810   -2.0358458173
H        0.3144105939   -4.0665140028    0.0955458549
H        1.8058690862   -5.0328209446   -3.8518293493
H       -1.0876492176   -0.8508040230    2.3349578036
H        1.8620364357   -1.3355311710   -2.0195369632
H       -0.8253173717    2.0523891762    1.9065082274
H       -2.2572834150    1.5022801196    0.9912381636
H       -0.9211401343    2.3241373458    0.1497686059
21   
Generated by ForceBalance from scan.xyz: Frame 6 of 11
C        1.5252817769   -5.0032143434   -1.3002180362
C        0.3759870690   -4.1843674782   -1.1781935719
C        2.1288583590   -4.6236228117   -2.4833479352
C        0.3501029740   -3.2818801558   -2.2702883895
C       -1.1606281076   -0.7821125991    0.9556431732
C        0.0027504557   -1.2547367548   -0.7937027819
C        0.3455222697    0.1458931623   -0.4426405000
C        0.5630044016   -1.9111657470   -1.8460589311
C       -0.4941546162    1.6308278864    1.4280295591
N       -0.9331109806   -1.7606259821    0.1270689499
N       -0.4583542734    0.3797442204    0.6937731507
O        1.1085671187    0.9599833083   -0.9528585962
O        1.3265260602   -3.7836379130   -3.1627074422
H        1.8995668063   -5.7264507095   -0.5877254026
H       -0.2475297386   -4.0596508576   -0.3024413299
H        2.9635457356   -5.0398700585   -3.0350935299
H       -1.8413965377   -0.8430069598    1.7998795911
H        1.2544045533   -1.3275431913   -2.4516364478
H       -0.1817559638    1.4874325719    2.4673809241
H       -1.4963550147    2.0706683151    1.4078839018
H        0.2032660934    2.3126787799    0.9375902787
21   
Generated by ForceBalance from scan.xyz: Frame 7 of 11
C        1.4580215175   -5.1416505339   -1.3710636603
C        0.4053623775   -4.2116156168   -1.1772530603
C        2.1248542619   -4.7249406224   -2.5035267401
C        0.4947117443   -3.2386301438   -2.1863935252
C       -1.0832128675   -0.7758370362    1.0018034258
C        0.0643495160   -1.2096335068   -0.7678275983
C        0.3212670080    0.2196054440   -0.4535994329
C        0.6377477582   -1.8520836112   -1.8221564822
C       -0.5670787840    1.6851119796    1.4101424716
N       -0.8124596618   -1.7550222463    0.1870572484
N       -0.4660269536    0.4239304893    0.6993058815
O        1.0148095222    1.0697006503   -1.0015373979
O        1.4563685220   -3.7137515545   -3.0954983701
H        1.7296291059   -5.9735698067   -0.7346404215
H       -0.2324597248   -4.1057228541   -0.3101848298
H        2.9250852359   -5.1693070702   -3.0822943879
H       -1.7373089247   -0.8630763256    1.8646785477
H        1.2774551701   -1.2458580273   -2.4604157218
H       -0.2219437607    1.5836214879    2.4439882527
H       -1.5962723267    2.0579200231    1.4060741376
H        0.0723532546    2.4009302579    0.8900387139
21   
Generated by ForceBalance from scan.xyz: Frame 8 of 11
C        1.3968597796   -5.2589527655   -1.4532521193
C        0.4787482470   -4.2205231210   -1.1427109470
C        2.0814532757   -4.8412767303   -2.5717058783
C        0.6583207312   -3.2092794156   -2.0879950412
C       -1.0255606367   -0.7610324576    1.0424138341
C        0.1355250238   -1.1773651982   -0.7216011933
C        0.3162586811    0.2723069805   -0.4434112357
C        0.7373907872   -1.8134055245   -1.7636224733
C       -0.6388892830    1.7330595434    1.3910889510
N       -0.7075970055   -1.7445706831    0.2506363991
N       -0.4739577452    0.4626029615    0.7090859191
O        0.9603452548    1.1433636074   -1.0173732155
O        1.5699711397   -3.6777894265   -3.0336351922
H        1.5671232149   -6.1758838419   -0.9043644720
H       -0.1430154766   -4.1206495931   -0.2641472405
H        2.8121086558   -5.3242585097   -3.2072231079
H       -1.6715959259   -0.8612760866    1.9099663673
H        1.3452310119   -1.1912206608   -2.4174561751
H       -0.2817009517    1.6747417033    2.4241437394
H       -1.6869058632    2.0490223035    1.3866267612
H       -0.0430006849    2.4701941402    0.8495342099
21   
Generated by ForceBalance from scan.xyz: Frame 9 of 11
C        1.3171878906   -5.3484419991   -1.5375346957
C        0.5382582435   -4.2382850952   -1.1078420033
C        2.0290435222   -4.9164503925   -2.6308725660
C        0.8191641545   -3.1869168295   -1.9708997230
C       -0.9591305661   -0.7429795737    1.0849407468
C        0.2118179959   -1.1468134022   -0.6747549474
C        0.3085307442    0.3202071459   -0.4432144083
C        0.8389599940   -1.7823697274   -1.7018163513
C       -0.7131906393    1.7786794428    1.3569924311
N       -0.5912489276   -1.7308627604    0.3209782044
N       -0.4808765175    0.4999287204    0.7108584821
O        0.8955960514    1.2079320493   -1.0510879976
O        1.6866477942   -3.6453973910   -2.9534458739
H        1.3735247779   -6.3301692751   -1.0858431682
H       -0.0831289811   -4.1528393083   -0.2278276163
H        2.7034898112   -5.4131586317   -3.3150748257
H       -1.5930786165   -0.8530724461    1.9602115330
H        1.4131716342   -1.1557250234   -2.3808943466
H       -0.3436938521    1.7718060210    2.3873121101
H       -1.7777930978    2.0331326157    1.3546886643
H       -0.1661686319    2.5326415665    0.7877783120
21   
Generated by ForceBalance from scan.xyz: Frame 10 of 11
C        1.2333571361   -5.4003769487   -1.6232296191
C        0.5990726138   -4.2524823426   -1.0679276057
C        1.9608353480   -4.9550457953   -2.6991764154
C        0.9795325990   -3.1715213508   -1.8448747705
C       -0.9160766142   -0.7307385243    1.1268634928
C        0.2734736729   -1.1258918868   -0.6225858529
C        0.2787744706    0.3524675909   -0.4456463047
C        0.9313198646   -1.7614376232   -1.6300088210
C       -0.8235695424    1.8094679767    1.3071236373
N       -0.4902586828   -1.7211740798    0.3971603933
N       -0.5151261071    0.5247782532    0.7060352772
O        0.8075361408    1.2511714141   -1.0893709214
O        1.7916086710   -3.6196621218   -2.8736434476
H        1.1762501693   -6.4216890508   -1.2702604849
H       -0.0211762718   -4.1828145289   -0.1858973189
H        2.5755067715   -5.4544187159   -3.4352145785
H       -1.5408835606   -0.8472423813    2.0078872056
H        1.4711898014   -1.1322769577   -2.3341931482
H       -0.4535602103    1.8610824354    2.3359462163
H       -1.9015117223    1.9994624379    1.2987982596
H       -0.3231760035    2.5742791126    0.7101633447
21   
Generated by ForceBalance from scan.xyz: Frame 11 of 11
C        1.1521620482   -5.4321345855   -1.7100833131
C        0.6740648635   -4.2782376517   -1.0247989076
C        1.8933403880   -4.9707221348   -2.7690915452
C        1.1564876680   -3.1794347959   -1.7122017568
C       -0.8641423897   -0.7486844298    1.1775990839
C        0.3501088902   -1.1350082307   -0.5566454456
C        0.2667905643    0.3466803842   -0.4333576453
C        1.0406626604   -1.7679818017   -1.5434264307
C       -0.9222170783    1.7974769158    1.2670266366
N       -0.3797798817   -1.7376650238    0.4833935849
N       -0.5359147091    0.5126464895    0.7129757987
O        0.7424095495    1.2511762296   -1.1094499923
O        1.9101091499   -3.6132139360   -2.7898715217
H        0.9751365087   -6.4695641808   -1.4585570288
H        0.0553138452   -4.2231745676   -0.1406659254
H        2.4446006163   -5.4626782004   -3.5582579785
H       -1.4837586389   -0.8702204373    2.0616109798
H        1.5499742023   -1.1371135032   -2.2683299266
H       -0.5593148261    1.9078111194    2.2937217282
H       -2.0095240824    1.9226678642    1.2505975852
H       -0.4662127371    2.5688352995    0.6435161950
