15   
Generated by ForceBalance from scan.xyz: Frame 1 of 24
C        0.2786838014   -0.6582953678    0.0626191231
C       -1.3526898728    0.7717323213    2.9860991429
C       -0.5471523383   -0.3287736060    2.3315170048
N        0.4191330024   -0.1243479959   -1.1499867709
N        0.5732002401   -1.9380648776    0.3050840292
O       -0.1683803484    0.1523912230    0.9815373914
H       -0.7665381368    1.6893169048    3.0727401765
H       -2.2652183024    0.9764342200    2.4217249296
H       -1.6334621189    0.4458576527    3.9916908251
H       -1.1392192307   -1.2401560975    2.2078912879
H        0.3817580458   -0.5401685619    2.8688443996
H        0.8409504827   -0.6238982860   -1.9236703794
H        0.1493879900    0.8438991575   -1.2890563703
H        0.9007518229   -2.5535934038   -0.4309648762
H        0.5632091666   -2.3114531742    1.2459188932
15   
Generated by ForceBalance from scan.xyz: Frame 2 of 24
C        0.3016438495   -0.6796754098    0.0853347285
C       -1.3757479986    0.7436381874    2.9393496411
C       -0.4549975449   -0.3207476261    2.3837014243
N        0.4011923199   -0.1323208411   -1.1256058825
N        0.4919571505   -1.9877550741    0.2809375716
O        0.0008314112    0.1445143969    1.0491947081
H       -0.8605398479    1.7027845335    3.0272577573
H       -2.2604139361    0.8637180374    2.3098268281
H       -1.7004423432    0.4351751619    3.9374164105
H       -0.9807399957   -1.2701215600    2.2527543795
H        0.4453989515   -0.4596060575    2.9869043174
H        0.7773883715   -0.6326800100   -1.9221368192
H        0.1983426888    0.8565738938   -1.2290812484
H        0.6949415735   -2.6119565521   -0.4919051430
H        0.5847981277   -2.3691807492    1.2142568204
15   
Generated by ForceBalance from scan.xyz: Frame 3 of 24
C        0.3178645057   -0.6718646937    0.1108590096
C       -1.4036531528    0.7212400459    2.8786521343
C       -0.3648344203   -0.2883659572    2.4403192992
N        0.4035007328   -0.0957825293   -1.0878891041
N        0.3984085366   -1.9985051990    0.2554110097
O        0.1488528175    0.1427983552    1.1130703938
H       -0.9769041927    1.7251026370    2.9365656515
H       -2.2574796920    0.7290592922    2.1969272538
H       -1.7596424484    0.4420953312    3.8749585647
H       -0.8000332100   -1.2852388716    2.3411634306
H        0.5069845602   -0.3182755175    3.0960015539
H        0.7159026608   -0.5945448960   -1.9126274133
H        0.2687209332    0.9078397149   -1.1539496398
H        0.4873792244   -2.6089992887   -0.5492729252
H        0.5486667741   -2.4164542790    1.1654264465
15   
Generated by ForceBalance from scan.xyz: Frame 4 of 24
C        0.3220627368   -0.6681033830    0.1334568095
C       -1.4259228366    0.6677114004    2.8129133382
C       -0.2661554725   -0.2510875966    2.4927188026
N        0.4278094837   -0.0681714228   -1.0522080907
N        0.2694204152   -2.0002545841    0.2359171398
O        0.2731274059    0.1309046735    1.1605933883
H       -1.1127165808    1.7140569349    2.7980369450
H       -2.2505642165    0.5262729666    2.1096187480
H       -1.7875588371    0.4323279568    3.8186137187
H       -0.5793587755   -1.2963121120    2.4721227469
H        0.5770124629   -0.1305695881    3.1731842366
H        0.6701890495   -0.5699955971   -1.8984221806
H        0.3957198518    0.9455302568   -1.0863437644
H        0.2689105796   -2.5877948118   -0.5904019640
H        0.4163723548   -2.4632916295    1.1241489789
15   
Generated by ForceBalance from scan.xyz: Frame 5 of 24
C        0.2671323068   -0.5741249716    0.0721598722
C       -1.4635542853    0.3358808818    2.8246286714
C       -0.0435391013   -0.0304031978    2.4431324835
N        0.8195277308   -0.1594213183   -1.0672244882
N       -0.1864428580   -1.8237558827    0.2130755586
O        0.2081288755    0.3164329497    1.0214140481
H       -1.6543111159    1.3940073039    2.6327767936
H       -2.2066515109   -0.2584932753    2.2838883231
H       -1.5961475944    0.1514983215    3.8949765210
H        0.2049688527   -1.0822776212    2.5999513251
H        0.6900567936    0.5769740447    2.9725728072
H        0.7709676764   -0.6961736193   -1.9251541441
H        1.2092396985    0.7768301479   -1.1051606211
H       -0.0826121816   -2.5074777714   -0.5282734673
H       -0.7705145792   -2.0845129242    0.9976517200
15   
Generated by ForceBalance from scan.xyz: Frame 6 of 24
C        0.2924944798   -0.5507374331    0.0946356546
C       -1.4522393063    0.2561269439    2.7338995972
C        0.0144966187   -0.0243194297    2.4669112584
N        0.8057727219   -0.1448697445   -1.0661227576
N       -0.2496807214   -1.7642389274    0.2318158434
O        0.3736468208    0.3114455729    1.0689689202
H       -1.6923843586    1.2978272039    2.5098753771
H       -2.1213882054   -0.3879651068    2.1548978204
H       -1.6523434930    0.0795419125    3.7950303477
H        0.3174745288   -1.0560093278    2.6639064455
H        0.6641729208    0.6356597899    3.0398426606
H        0.7117480975   -0.6783277177   -1.9220623428
H        1.2534123729    0.7647806659   -1.1092335007
H       -0.2591717331   -2.4265603532   -0.5356100778
H       -0.7547308962   -2.0257803839    1.0686104187
15   
Generated by ForceBalance from scan.xyz: Frame 7 of 24
C        0.3021629881   -0.5622819057    0.1331977351
C       -1.4342234647    0.2614611539    2.6372636854
C        0.0479484793   -0.0380670831    2.5099665384
N        0.6967617837   -0.1029855966   -1.0538224086
N       -0.2938633972   -1.7506172394    0.2591053690
O        0.5486004947    0.2274789892    1.1416282085
H       -1.6448821132    1.2942201589    2.3501101626
H       -2.0602968269   -0.4049387449    2.0377232209
H       -1.7205974515    0.1357605128    3.6859221996
H        0.3216655683   -1.0620034004    2.7820359872
H        0.6536760494    0.6395969779    3.1090460791
H        0.6219486339   -0.6465479453   -1.9052606662
H        1.1464348978    0.8055589027   -1.0980614894
H       -0.4555622985   -2.3486459986   -0.5432763973
H       -0.5578867150   -2.1167807936    1.1643719555
15   
Generated by ForceBalance from scan.xyz: Frame 8 of 24
C        0.3125595804   -0.5826438799    0.1640032132
C       -1.4099891372    0.2409050140    2.5595301029
C        0.0807036148   -0.0415120306    2.5455412031
N        0.6344222618   -0.0669591947   -1.0214769037
N       -0.3353244733   -1.7457276492    0.2692004575
O        0.6865499852    0.1180552135    1.1988829797
H       -1.6207606909    1.2414411244    2.1735942629
H       -1.9958772690   -0.4876917034    1.9950378726
H       -1.7477915295    0.2048276100    3.5998573339
H        0.3404461023   -1.0404251552    2.9098763608
H        0.6423483067    0.6862753635    3.1280202761
H        0.5548879165   -0.5905446142   -1.8853510430
H        1.1001013715    0.8344174592   -1.0458399323
H       -0.6193692294   -2.2702294657   -0.5507070795
H       -0.4497512895   -2.1989020312    1.1670889301
15   
Generated by ForceBalance from scan.xyz: Frame 9 of 24
C        0.3171356967   -0.6011941320    0.1859370707
C       -1.3964213353    0.1883206109    2.5283388971
C        0.1039616266   -0.0291571447    2.5789811995
N        0.6332345928   -0.0411547885   -0.9808244682
N       -0.3972054792   -1.7279252671    0.2514418012
O        0.7724038469    0.0065129518    1.2460946329
H       -1.6453055447    1.1127361180    1.9999538528
H       -1.9487602168   -0.6384332171    2.0792635149
H       -1.7439505564    0.2939936647    3.5608294242
H        0.3852423112   -0.9762502411    3.0484719976
H        0.6181069041    0.7776663587    3.0975633775
H        0.5330966722   -0.5277837140   -1.8643206547
H        1.1432718270    0.8362355632   -0.9710373767
H       -0.7564239345   -2.1794639471   -0.5825474056
H       -0.4661361017   -2.2428478739    1.1206431336
15   
Generated by ForceBalance from scan.xyz: Frame 10 of 24
C        0.3207535423   -0.6082144851    0.1909454452
C       -1.3865483265    0.1128193828    2.5387519522
C        0.1247772695    0.0047451196    2.5982803852
N        0.6875581679   -0.0327559240   -0.9540234630
N       -0.4784004348   -1.6783469280    0.2088697127
O        0.8186062432   -0.0825567715    1.2743958232
H       -1.7092042601    0.9136407543    1.8671717281
H       -1.8918417376   -0.8126803868    2.2605066374
H       -1.7235979698    0.3759054435    3.5464531033
H        0.4670946529   -0.8601571154    3.1712255938
H        0.5795473901    0.9021319748    3.0135570526
H        0.5720965673   -0.4859511080   -1.8534592015
H        1.2587617385    0.8048788308   -0.9093370371
H       -0.8779507767   -2.0588117446   -0.6421839919
H       -0.5748244960   -2.2302860427    1.0520683721
15   
Generated by ForceBalance from scan.xyz: Frame 11 of 24
C        0.3188788005   -0.5886867108    0.1736048494
C       -1.3817004143   -0.0117628797    2.6114325716
C        0.1320597029    0.0724967092    2.5968208569
N        0.8160668180   -0.0725078220   -0.9523169571
N       -0.5976327708   -1.5592376838    0.1394047008
O        0.8158402879   -0.1079243209    1.2758481706
H       -1.8430238734    0.6121970395    1.8414194141
H       -1.7749474538   -1.0280776089    2.5415830703
H       -1.7014318142    0.3798361914    3.5825029583
H        0.6004467753   -0.6654552596    3.2497142059
H        0.4778590232    1.0657632347    2.8787412160
H        0.7033764432   -0.5228715015   -1.8533520485
H        1.4844887920    0.6872150655   -0.8777747988
H       -0.9956122613   -1.8816134500   -0.7358160094
H       -0.8410621390   -2.0707668161    0.9770764610
15   
Generated by ForceBalance from scan.xyz: Frame 12 of 24
C        0.3004645310   -0.5403452965    0.1286445533
C       -1.3616563326   -0.1736560155    2.7134499013
C        0.1034683489    0.1829736160    2.5582760540
N        0.9744315497   -0.1797920186   -0.9675908204
N       -0.7483069679   -1.3620540779    0.0408604814
O        0.7687457839   -0.0547803607    1.2395341981
H       -2.0007011883    0.2992255953    1.9639447285
H       -1.5471531545   -1.2517424755    2.7542301595
H       -1.6655154335    0.2198458756    3.6890072962
H        0.7354396640   -0.3694769748    3.2533613097
H        0.2650401261    1.2512377676    2.6998626204
H        0.8583844412   -0.6529678625   -1.8560424531
H        1.7594133359    0.4541293666   -0.8623537450
H       -1.1029345852   -1.6645583375   -0.8593210316
H       -1.2057411983   -1.7192362760    0.8679009275
15   
Generated by ForceBalance from scan.xyz: Frame 13 of 24
C        0.1007930629   -0.6741848915    0.1000217556
C       -0.5734324694    0.3060609746    2.8844020605
C       -1.4909313579   -0.5652372851    2.0490427773
N        0.0933640846   -0.3566235301   -1.1962997439
N        1.2491078778   -0.8329666464    0.7628076983
O       -1.0704172671   -0.8490843195    0.6392005978
H        0.3203245808   -0.2044401308    3.2491086105
H       -0.2841076858    1.2249907948    2.3677571466
H       -1.1486106725    0.5973253613    3.7692131142
H       -2.4559875793   -0.0871953730    1.8884908512
H       -1.6512370738   -1.5503106478    2.4896812525
H        0.9169775434   -0.4389874165   -1.7813359960
H       -0.8026974839   -0.2120096003   -1.6498211549
H        2.1441712438   -0.6470481022    0.3239226299
H        1.2608018693   -1.2439735803    1.6866850906
15   
Generated by ForceBalance from scan.xyz: Frame 14 of 24
C        0.1025996520   -0.6938219567    0.1173579858
C       -0.6091787938    0.4185989623    2.8011723981
C       -1.4454830495   -0.6123363506    2.0683037671
N        0.1437414809   -0.2464043590   -1.1375433960
N        1.2172174810   -1.0116417629    0.7812623281
O       -1.0869408083   -0.8314649691    0.6312508458
H        0.4039423839    0.0899873691    3.0354617842
H       -0.5620282182    1.3647770799    2.2543951087
H       -1.1141625992    0.6156931108    3.7521842248
H       -2.4849723816   -0.3023413366    1.9792046269
H       -1.4117566149   -1.5985364899    2.5371054020
H        0.9698962594   -0.3294501906   -1.7191562168
H       -0.7286372577    0.0237540147   -1.5801174525
H        2.1363863781   -0.8737215994    0.3753155646
H        1.1661743800   -1.5457290386    1.6397865302
15   
Generated by ForceBalance from scan.xyz: Frame 15 of 24
C        0.1029977836   -0.6852186023    0.1137043520
C       -0.6447382870    0.4840016675    2.7820879312
C       -1.4021938361   -0.6210398412    2.0706426712
N        0.1945347099   -0.2134757434   -1.1288634221
N        1.1784640290   -1.1083680000    0.7833419302
O       -1.1004406586   -0.7295380757    0.6139867531
H        0.4252295712    0.2949742614    2.8806078191
H       -0.7929498954    1.4479819715    2.2876657790
H       -1.0593037087    0.5633419107    3.7919495744
H       -2.4747739025   -0.4379556907    2.0536422833
H       -1.2272640493   -1.6099322584    2.5042518661
H        1.0241022355   -0.3346566202   -1.6985420739
H       -0.6486308230    0.1319631757   -1.5758439196
H        2.1093499526   -1.0527785329    0.3848142388
H        1.0747771193   -1.6369369915    1.6408215899
15   
Generated by ForceBalance from scan.xyz: Frame 16 of 24
C        0.1058127883   -0.6637638723    0.0942643152
C       -0.6861055982    0.5256590736    2.8038934633
C       -1.3633259495   -0.6089735525    2.0581715251
N        0.2314795197   -0.2252242612   -1.1574464732
N        1.1443586136   -1.1639034698    0.7687026930
O       -1.0949356303   -0.5820837831    0.5976088679
H        0.4037979874    0.4558134618    2.8050447725
H       -0.9792919240    1.4937911839    2.3901235216
H       -1.0225913822    0.4901163818    3.8446656686
H       -2.4483188943   -0.5284765072    2.0848472477
H       -1.0878919352   -1.6017122451    2.4278194452
H        1.0616268010   -0.3912302771   -1.7142618693
H       -0.5827958913    0.1729960736   -1.6138526662
H        2.0696191000   -1.2130378135    0.3569858311
H        1.0133706900   -1.6235720284    1.6610093167
15   
Generated by ForceBalance from scan.xyz: Frame 17 of 24
C        0.1155842374   -0.6354763348    0.0702675670
C       -0.7262414406    0.5399690357    2.8762593282
C       -1.3276372049   -0.5786242937    2.0457008023
N        0.2350757272   -0.2843414656   -1.2096168536
N        1.1288517272   -1.1911938632    0.7393769049
O       -1.0527276208   -0.4018432975    0.6011630005
H        0.3669402273    0.5494087173    2.8570317084
H       -1.0920409527    1.5117353325    2.5367204946
H       -1.0412731401    0.4030245793    3.9152474927
H       -2.4158217696   -0.5668350610    2.0730209355
H       -0.9956506372   -1.5796492102    2.3374580009
H        1.0682575317   -0.4709862047   -1.7545720014
H       -0.5638347544    0.1333809679   -1.6753057954
H        2.0197947465   -1.3754325297    0.2922993034
H        1.0262875989   -1.4938818584    1.6991437957
15   
Generated by ForceBalance from scan.xyz: Frame 18 of 24
C        0.1344990183   -0.6127031920    0.0413410376
C       -0.7639597060    0.5268843883    2.9662268267
C       -1.2939442989   -0.5384972516    2.0253089137
N        0.2046747361   -0.3810427044   -1.2689850148
N        1.1263102700   -1.2232124161    0.6962826615
O       -0.9652250023   -0.2147170127    0.6170901540
H        0.3293079213    0.5755912258    2.9821122122
H       -1.1518836746    1.5104811301    2.6922791118
H       -1.1038485426    0.2953938035    3.9801844639
H       -2.3825984500   -0.5618546058    2.0115125232
H       -0.9340680237   -1.5478164619    2.2415234232
H        1.0450839501   -0.5471099036   -1.8095266994
H       -0.5943258485    0.0386225866   -1.7328631923
H        1.9507575001   -1.5576931114    0.2103688129
H        1.1343504584   -1.2830123435    1.7062648195
15   
Generated by ForceBalance from scan.xyz: Frame 19 of 24
C        0.1755934754   -0.6099689556    0.0413074508
C       -0.8551714372    0.5752485361    3.0299943433
C       -1.2440626937   -0.5021523963    2.0379659703
N        0.2063582386   -0.4003435041   -1.2741511900
N        1.1367049891   -1.3035144015    0.6597147316
O       -0.8475476106   -0.0984046860    0.6651264290
H        0.2295596920    0.6993791884    3.1062209989
H       -1.2988743394    1.5339422559    2.7527296358
H       -1.2340820345    0.2940905358    4.0172140426
H       -2.3253578978   -0.6082364142    1.9548209339
H       -0.8188419915   -1.4845548068    2.2544517095
H        1.0236298392   -0.5967256609   -1.8398425248
H       -0.5784424844    0.0743072989   -1.7085197538
H        1.8951836861   -1.7298804914    0.1393529738
H        1.2176470458   -1.3027955833    1.6687435296
15   
Generated by ForceBalance from scan.xyz: Frame 20 of 24
C        0.1696134472   -0.7280353506    0.0820026226
C       -1.0762683560    0.8052260450    2.9309029231
C       -1.0052286986   -0.5415724420    2.2432518635
N        0.3677974040   -0.0917920902   -1.0724754005
N        0.9711254793   -1.7244065099    0.4727955772
O       -0.8440427602   -0.3082464227    0.7834983391
H       -0.1387288942    1.3565049903    2.8224006457
H       -1.8975169810    1.4056036622    2.5330891285
H       -1.2570513273    0.6409620799    3.9976522316
H       -1.9283360801   -1.1153821088    2.3275428115
H       -0.1657981551   -1.1336832720    2.6117295616
H        0.9894079467   -0.4445572532   -1.7906750122
H       -0.2238317796    0.7019474061   -1.2954969254
H        1.7753526816   -1.9956155751   -0.0818856322
H        0.7006528221   -2.3515172654    1.2201445654
15   
Generated by ForceBalance from scan.xyz: Frame 21 of 24
C        0.1863917237   -0.7235483424    0.0664843801
C       -1.1572741361    0.8181557283    2.9617829941
C       -0.8973290214   -0.4976428187    2.2605787589
N        0.4179171495   -0.0901438255   -1.0830355244
N        0.8852783012   -1.8071077044    0.4197750687
O       -0.7544522263   -0.2122776020    0.8081605220
H       -0.3068932801    1.4959014254    2.8552792276
H       -2.0564112866    1.3008003585    2.5721482121
H       -1.3091892321    0.6192561125    4.0269766015
H       -1.7305353321   -1.1978000560    2.3407619651
H        0.0242969926   -0.9611368613    2.6194162068
H        0.9858212273   -0.4884919937   -1.8215177127
H       -0.0912531075    0.7662984091   -1.2754927542
H        1.6406130200   -2.1556698843   -0.1599740436
H        0.5733637558   -2.4067171629    1.1738074460
15   
Generated by ForceBalance from scan.xyz: Frame 22 of 24
C        0.2141725054   -0.7140643370    0.0558127586
C       -1.2195544590    0.8051040856    2.9920384139
C       -0.7951261199   -0.4544049090    2.2688917327
N        0.4619706002   -0.1084594935   -1.1051018719
N        0.8110784146   -1.8623030986    0.3886838403
O       -0.6361556499   -0.1058729134    0.8341753290
H       -0.4487516265    1.5759533693    2.9212828451
H       -2.1579551299    1.1928217334    2.5892875884
H       -1.3722836197    0.5642661395    4.0481558526
H       -1.5493542238   -1.2437015781    2.3136127297
H        0.1661981388   -0.8191983869    2.6398964468
H        0.9790565937   -0.5534503860   -1.8540674482
H        0.0210982605    0.7868635026   -1.2889391788
H        1.4922102464   -2.2985564269   -0.2227558463
H        0.4972327488   -2.4035808473    1.1847423489
15   
Generated by ForceBalance from scan.xyz: Frame 23 of 24
C        0.2262840546   -0.6788951647    0.0449304982
C       -1.2751617116    0.8022784127    3.0122349568
C       -0.7092865460   -0.3924466698    2.2767779728
N        0.4597612439   -0.1084160586   -1.1362895746
N        0.7205480464   -1.8801391576    0.3548577564
O       -0.5074081135    0.0191504870    0.8670736334
H       -0.5755701593    1.6408963679    2.9916488920
H       -2.2282637822    1.1146145270    2.5797053888
H       -1.4459639338    0.5196080034    4.0549080294
H       -1.3999948464   -1.2404542781    2.2673915265
H        0.2628036759   -0.6890079753    2.6811745071
H        0.9378626937   -0.5858757014   -1.8909540379
H        0.0892152787    0.8201994416   -1.3094215143
H        1.3048787203   -2.3947574294   -0.2944952662
H        0.4569873722   -2.3531704937    1.2101156981
15   
Generated by ForceBalance from scan.xyz: Frame 24 of 24
C        0.2459420382   -0.6713638753    0.0498978350
C       -1.3197064821    0.7806651836    3.0138881851
C       -0.6309385626   -0.3607859570    2.2991395905
N        0.4335859005   -0.1311349714   -1.1534680782
N        0.6435566982   -1.9139588438    0.3327569277
O       -0.3486668511    0.0984080515    0.9196856754
H       -0.6761718770    1.6623301266    3.0539925308
H       -2.2598153946    1.0401284033    2.5220842472
H       -1.5404124502    0.4672093255    4.0381309541
H       -1.2734152847   -1.2434645809    2.2264886474
H        0.3266447905   -0.6143647337    2.7638101947
H        0.8858539081   -0.6250864312   -1.9133288268
H        0.1147479684    0.8184097015   -1.3154152218
H        1.1029889263   -2.4934330645   -0.3607261970
H        0.4951113523   -2.3208456691    1.2474828388
