24   
Generated by ForceBalance from scan.xyz: Frame 1 of 24
C        1.1564009359    2.8429060586    4.2029146981
C        2.6105230063    1.9236516572    2.7722736188
C        2.2352653125    3.6652090529    4.0027661452
C        2.5733903863   -1.1359520761    4.4060741517
C        0.9901564729   -0.1495946919    6.0381724440
C        2.5285757462    5.0293450402    4.5520441240
N        3.1289927553    3.0799393650    3.1101227744
N        1.3914433831    1.7226189712    3.3992774488
N        1.2071280018   -0.6610483317    4.6748555910
O       -0.8294650240    0.6020315599    3.8871928988
O        0.8039576871   -0.4240688321    2.1938264935
O        2.7212399265    5.9937561841    3.5167715389
S        0.5051376002    0.2296456991    3.4550296748
H        0.2431721141    2.9453066448    4.7696760394
H        3.0158146434    1.2054406839    2.0724271301
H        2.6254374208   -1.5513179838    3.4004741667
H        3.3182211217   -0.3362561794    4.5209622462
H        2.7925009757   -1.9306458848    5.1228642741
H       -0.0583678633    0.1157315020    6.1663314456
H        1.2340608357   -0.9559168424    6.7337370388
H        1.6259530497    0.7187153953    6.2581771202
H        1.6918794444    5.3827216936    5.1593654695
H        3.4194716580    4.9780686567    5.1955247636
H        3.3369644546    5.5973945835    2.8772542709
24   
Generated by ForceBalance from scan.xyz: Frame 2 of 24
C        1.2783847330    2.7923972993    4.2752164480
C        2.5584356644    1.9889547607    2.6241361163
C        2.2824859776    3.6713631433    3.9601427000
C        2.5923526292   -1.1043570976    4.4806266819
C        0.8835655722   -0.2053748161    6.0349680391
C        2.5927931637    5.0289102101    4.5172935255
N        3.0678885389    3.1577043647    2.9326996643
N        1.4588845470    1.7040265807    3.4158401491
N        1.1980887591   -0.6755596616    4.6760810009
O       -0.7997700555    0.5910292398    3.7888029345
O        0.9155842679   -0.4257869957    2.1795606754
O        2.6343041730    6.0275861152    3.4981634530
S        0.5564752941    0.2207051161    3.4291383830
H        0.4415430451    2.8433157369    4.9554278241
H        2.8963907930    1.3077635975    1.8552540853
H        2.7116265849   -1.5174024795    3.4798155635
H        3.3014857138   -0.2787532771    4.6323637415
H        2.8001323060   -1.8906907088    5.2097394104
H       -0.1702245990    0.0638062735    6.0939474458
H        1.0701866358   -1.0350983695    6.7208511396
H        1.5071717789    0.6495776159    6.3291699190
H        1.8203059291    5.3341838646    5.2273076634
H        3.5527324869    4.9915521343    5.0536286869
H        3.1738506662    5.6653009363    2.7749145560
24   
Generated by ForceBalance from scan.xyz: Frame 3 of 24
C        1.4168438685    2.7393401718    4.3640952547
C        2.4903402049    2.0617806445    2.5213542634
C        2.3207393151    3.6822500499    3.9482901988
C        2.6015984573   -1.0935531554    4.5954455282
C        0.7885896727   -0.2525693240    6.0653612831
C        2.6433837920    5.0336532553    4.5138086145
N        2.9790451711    3.2458358783    2.8031033174
N        1.5397693784    1.6837719500    3.4544395207
N        1.1944584302   -0.6800214333    4.7172633754
O       -0.7570068282    0.5936463323    3.7377030687
O        1.0160296245   -0.4395905090    2.2107180721
O        2.5259270512    6.0628885183    3.5322944170
S        0.6124115678    0.2139764983    3.4434245004
H        0.6790250354    2.7302439631    5.1519811167
H        2.7543560613    1.4218116076    1.6908133485
H        2.7816593296   -1.4907975079    3.5972722937
H        3.2912055404   -0.2625468293    4.7976724185
H        2.7759235907   -1.8885129444    5.3240057748
H       -0.2612835303    0.0375096215    6.0571255956
H        0.9078054719   -1.1101484107    6.7320214840
H        1.4061126194    0.5759395036    6.4371377383
H        1.9497686641    5.2840917846    5.3203135428
H        3.6609330805    5.0201077582    4.9322047115
H        2.9787030370    5.7397142505    2.7346528331
24   
Generated by ForceBalance from scan.xyz: Frame 4 of 24
C        1.5788919526    2.6791519449    4.4084294339
C        2.4199819423    2.1353276219    2.4085181586
C        2.3680316572    3.6865249428    3.9185434716
C        2.6064062368   -1.0927987289    4.6910989436
C        0.6898352113   -0.2919869620    6.0570692858
C        2.7023208116    5.0286843468    4.4992053931
N        2.8836953816    3.3321362913    2.6759248119
N        1.6388216183    1.6612183787    3.4498888578
N        1.1975072941   -0.6716882556    4.7302633863
O       -0.6977736124    0.6033354679    3.6506988608
O        1.1243509657   -0.4640377931    2.2154895076
O        2.4062312620    6.0886137332    3.5908374802
S        0.6806444651    0.2082216931    3.4247939457
H        0.9639992855    2.6010042551    5.2918987276
H        2.6028925756    1.5416018337    1.5236212406
H        2.8494503694   -1.4680721233    3.6976990232
H        3.2846419517   -0.2706434544    4.9562070319
H        2.7287497789   -1.9059364728    5.4103282121
H       -0.3437719269    0.0411269432    5.9730823236
H        0.7184664122   -1.1826680227    6.6898973596
H        1.3023534347    0.4921392615    6.5211329504
H        2.1132084784    5.2106833881    5.4015106945
H        3.7665275092    5.0508252871    4.7775945118
H        2.7648558061    5.8230062076    2.7267793831
24   
Generated by ForceBalance from scan.xyz: Frame 5 of 24
C        1.2000772157    3.3942077797    3.7805280298
C        2.6770364752    1.7087468184    3.8106052069
C        2.4203646219    3.8176776681    4.2335564118
C       -2.3819443397    1.1769736707    2.8101265175
C       -1.1186996253    0.7888522874    4.9102251278
C        2.8589688349    5.1680200218    4.7140977116
N        3.3261026257    2.7578639650    4.2474964739
N        1.3542355089    2.0261641061    3.5308190080
N       -1.1200398295    1.3643344921    3.5533083796
O        0.0701918947    1.5395421181    1.3260657291
O        0.7725561864   -0.3303544535    2.8872647440
O        3.3462285446    5.1241027441    6.0571684748
S        0.2608748893    1.0195363376    2.6706815780
H        0.2529841088    3.8907405861    3.6346494304
H        3.0566700553    0.7040832120    3.6837484516
H       -2.3024874024    1.6483404330    1.8315117125
H       -2.6418817442    0.1174155179    2.6912030674
H       -3.1682673567    1.6761615487    3.3812215538
H       -0.1851659381    1.0374668970    5.4174575492
H       -1.9409885011    1.2500539193    5.4619914822
H       -1.2475555900   -0.2999537217    4.8988218609
H        3.6332693051    5.5594456128    4.0387808946
H        2.0189186463    5.8663041312    4.7085817028
H        4.0019734010    4.4071936521    6.0911940585
24   
Generated by ForceBalance from scan.xyz: Frame 6 of 24
C        1.1652579777    3.3144138625    3.9364681148
C        2.7328948383    1.7272370724    3.7375631331
C        2.4052134165    3.8077268068    4.2389428251
C       -2.3504945515    1.2363181248    2.7691188984
C       -1.2190285523    0.7572744595    4.9280508467
C        2.8188101427    5.1745604537    4.6942656816
N        3.3689003447    2.8075474675    4.1112714760
N        1.3645612709    1.9572714944    3.6515930430
N       -1.1212703618    1.3454340518    3.5794538034
O        0.1770268360    1.4163344298    1.3980344044
O        0.7587293893   -0.4081140767    3.0524668236
O        3.4747171230    5.1396284904    5.9636719161
S        0.2872775618    0.9439946275    2.7695537178
H        0.1785961051    3.7512067344    3.9239494168
H        3.1563157884    0.7516266222    3.5400284394
H       -2.1946824162    1.7146888517    1.8032754575
H       -2.6594495105    0.1939932983    2.6199012239
H       -3.1381778974    1.7692807777    3.3069207955
H       -0.2972992746    0.9435680420    5.4813472792
H       -2.0385685282    1.2606450742    5.4462193140
H       -1.4099494119   -0.3217304824    4.8957977572
H        3.4756136600    5.6251552830    3.9362483264
H        1.9440970667    5.8184044580    4.8115600815
H        4.1685178915    4.4616784304    5.8992881623
24   
Generated by ForceBalance from scan.xyz: Frame 7 of 24
C        1.1554580377    3.2371969103    4.0735553537
C        2.7898098831    1.7805415426    3.6145302850
C        2.3856021910    3.8107774857    4.2424865700
C       -2.2829567917    1.3553787006    2.6889877155
C       -1.3089818582    0.7565616369    4.8996106839
C        2.7565793085    5.1873594514    4.7042191465
N        3.3927869447    2.8901310841    3.9524873239
N        1.4075146156    1.9032497195    3.7188241500
N       -1.0965586109    1.3497906020    3.5664134851
O        0.3057192903    1.2950996616    1.4391545688
O        0.7432468663   -0.4708452213    3.1918575012
O        3.5475945645    5.1590323367    5.8945624688
S        0.3293675120    0.8823485444    2.8345227678
H        0.1477876583    3.6028179840    4.1945807530
H        3.2546569096    0.8481031459    3.3224362811
H       -2.0358621424    1.8346305282    1.7429087339
H       -2.6644591445    0.3439608113    2.5011472163
H       -3.0544746640    1.9413528448    3.1943182695
H       -0.4047443623    0.8599920068    5.5011855111
H       -2.1115923401    1.3176990968    5.3841587267
H       -1.5822135596   -0.3032693120    4.8407796479
H        3.2961663790    5.7053535761    3.8983021338
H        1.8598107120    5.7653119920    4.9391704800
H        4.2757706815    4.5363457814    5.7300853459
24   
Generated by ForceBalance from scan.xyz: Frame 8 of 24
C        1.1091765718    3.2028333148    4.2724902498
C        2.6819533498    2.1329554326    3.0968708541
C        2.2764643561    3.9143388534    4.2541295965
C       -1.7504217191    1.6774667690    2.7270796170
C       -1.8379961045    0.4010045202    4.8613190446
C        2.6203444150    5.2383789088    4.8700395429
N        3.2476023558    3.2326047546    3.5210451776
N        1.3413236959    2.0772155840    3.4650502181
N       -1.0263459354    1.1860047642    3.9126467994
O        0.5732982913    0.0023964363    2.2415681651
O        0.9599871131   -0.1560881752    4.7511284703
O        3.8176560988    5.1654430885    5.6421838973
S        0.4929937606    0.5723017716    3.5818631674
H        0.1487818707    3.3708644275    4.7337797145
H        3.1384155931    1.3557787689    2.4978898038
H       -1.0944318220    2.3068568169    2.1239042145
H       -2.1304305968    0.8584262303    2.1054957871
H       -2.5848219483    2.2879073854    3.0811132225
H       -1.2285471976    0.1160492199    5.7174584630
H       -2.6505698569    1.0471043585    5.2026500102
H       -2.2640570393   -0.4978863671    4.3981175310
H        2.7215992271    5.9951616253    4.0778642462
H        1.8248065689    5.5616351779    5.5459418677
H        4.4681543239    4.6838776567    5.1027595381
24   
Generated by ForceBalance from scan.xyz: Frame 9 of 24
C        1.1711329219    3.1549841515    4.4417705959
C        2.5907740677    2.1646945641    3.0219301144
C        2.3008197116    3.9070541287    4.2725310493
C       -1.6533981110    1.6824771915    2.7020223293
C       -1.9446937932    0.3262372130    4.7607220153
C        2.6895225071    5.2287409923    4.8666527095
N        3.1749430728    3.2762721126    3.3874977677
N        1.3258112796    2.0526000268    3.5884325083
N       -1.0474603094    1.1656057846    3.9425095010
O        0.6797970623   -0.0905848787    2.4345122060
O        0.8844403547   -0.1151824650    4.9680686032
O        3.9878751309    5.1809595795    5.4557794046
S        0.4959032181    0.5484562305    3.7335844682
H        0.2796480307    3.2820652566    5.0362516890
H        2.9751238479    1.4160827056    2.3420315719
H       -0.9499392961    2.3428071866    2.1925536059
H       -1.9505422256    0.8772807751    2.0199399685
H       -2.5318564213    2.2673131606    2.9849544166
H       -1.4245483576    0.0059268247    5.6621885447
H       -2.7970515010    0.9482312397    5.0444261825
H       -2.3079740153   -0.5519028979    4.2119222167
H        2.6515455852    6.0047190065    4.0875403218
H        1.9907769394    5.5104782773    5.6581741445
H        4.5677364975    4.7328980898    4.8162658038
24   
Generated by ForceBalance from scan.xyz: Frame 10 of 24
C        1.2292877809    3.2846995791    3.7564961336
C        3.0145209644    1.9896685676    3.3973007822
C        2.3870236451    4.0110938089    3.8495169781
C       -1.8095285569    1.6059177100    3.1591178705
C       -0.3991025205    1.1066291667    1.1625024578
C        2.5943591413    5.4715832968    4.1146570076
N        3.4879848022    3.1909390827    3.6198909432
N        1.6279126239    1.9839903026    3.4290184133
N       -0.6661867039    0.8804956735    2.5899560447
O        1.4511831642   -0.4569433711    2.8789143309
O        0.1852137069    0.4324065290    4.9161711617
O        3.2842630874    6.1176697892    3.0421958843
S        0.6420025795    0.5516039764    3.5425439193
H        0.1930918506    3.5557175743    3.8867578783
H        3.5776423564    1.0919657355    3.1814066417
H       -1.8672104268    1.4205639987    4.2306485948
H       -1.7432604355    2.6849562493    2.9690337244
H       -2.7190002484    1.2225052293    2.6885598547
H        0.3643314958    0.4105568742    0.8166655447
H       -1.3235222452    0.9078944900    0.6147044442
H       -0.0769941740    2.1378641102    0.9680926390
H        1.6335036911    5.9809783482    4.2192489792
H        3.1498797948    5.5932923928    5.0555484935
H        4.0762622158    5.5841216972    2.8601189270
24   
Generated by ForceBalance from scan.xyz: Frame 11 of 24
C        1.2328591647    3.2963247035    3.9579826048
C        2.9476077710    2.0395253702    3.2654203645
C        2.3838858160    4.0359687898    3.8839258500
C       -1.7738333827    1.6843574685    3.1083831632
C       -0.3138685103    1.0186574751    1.2102024726
C        2.6198257368    5.4888666092    4.1670661526
N        3.4393711951    3.2404075118    3.4483869530
N        1.5871200253    2.0116031236    3.5326848173
N       -0.6655272859    0.8457530285    2.6282273954
O        1.4485992988   -0.4512288839    3.0625572817
O        0.0939209269    0.5191281087    5.0098323950
O        3.1259733930    6.1802283427    3.0228127446
S        0.6090400383    0.5767232254    3.6535727418
H        0.2330091005    3.5400643705    4.2825707806
H        3.4757439857    1.1558984453    2.9346270380
H       -1.9311363578    1.5118665420    4.1721319746
H       -1.5926973762    2.7509752659    2.9216155122
H       -2.6750781499    1.3819544458    2.5689599683
H        0.4200052396    0.2677223021    0.9199237522
H       -1.2217596136    0.8630486496    0.6228614166
H        0.0799109923    2.0235985978    1.0077992076
H        1.6839429694    5.9814872683    4.4409534355
H        3.3166325799    5.5854349505    5.0119106583
H        3.8853688310    5.6654730987    2.7012114661
24   
Generated by ForceBalance from scan.xyz: Frame 12 of 24
C        1.2196119329    3.1570391680    4.0802123051
C        2.8309837008    1.9766612858    3.0718887995
C        2.3370902599    3.9247976399    3.8790720427
C       -1.7474145491    1.7027297954    2.9412711198
C       -0.2621602655    0.9179296227    1.1167689971
C        2.5972274553    5.3625275214    4.2152394844
N        3.3271465861    3.1775565457    3.2487366731
N        1.5323074641    1.9021970012    3.5476933619
N       -0.6907116025    0.7710575042    2.5170894514
O        1.3840426734   -0.5577412707    3.0415958187
O       -0.0421519114    0.4307104797    4.9317375435
O        2.9545916903    6.1228084260    3.0586945066
S        0.5351209965    0.4796334172    3.6009008021
H        0.2774391136    3.3518476371    4.5694388705
H        3.3184570976    1.1232864892    2.6210723297
H       -1.9935933464    1.5264658687    3.9875671181
H       -1.4554449335    2.7508960904    2.7930155633
H       -2.6326219670    1.4938454034    2.3355293201
H        0.4323132086    0.1189735526    0.8600584556
H       -1.1506631543    0.8228788606    0.4885198866
H        0.2055944669    1.8947322717    0.9326179781
H        1.6990608208    5.8261701887    4.6298783083
H        3.3923035574    5.4217265048    4.9722438256
H        3.6636074405    5.6299088112    2.6119299874
24   
Generated by ForceBalance from scan.xyz: Frame 13 of 24
C        1.2683193313    3.1139240856    4.2315959910
C        2.7525305118    2.0042839124    2.9765604152
C        2.3245423832    3.9195978726    3.8926799087
C       -1.6603905712    1.7997728561    2.8855393201
C       -0.1720463649    0.8749715631    1.1339056904
C        2.5906477743    5.3570005481    4.2261465209
N        3.2366594411    3.2157513668    3.1124027653
N        1.5461113531    1.8758955020    3.6440461799
N       -0.6575280876    0.7857673971    2.5206794305
O        1.3619398127   -0.5889028637    3.1464112618
O       -0.1125882594    0.4632981095    4.9645150473
O        2.7677073716    6.1505361313    3.0503921269
S        0.5182889821    0.4767398298    3.6576267456
H        0.3966809378    3.2652958703    4.8502966581
H        3.1976847983    1.1747268222    2.4445221235
H       -1.9767834093    1.6472863971    3.9166017836
H       -1.2788915469    2.8213149438    2.7550538764
H       -2.5240870869    1.6568672843    2.2317960175
H        0.4912454339    0.0371342922    0.9230738794
H       -1.0412982072    0.8060582764    0.4760744479
H        0.3482510662    1.8234271738    0.9413132400
H        1.7449724184    5.7855386292    4.7689207292
H        3.4789728597    5.4243139951    4.8702888435
H        3.4302080667    5.6933582395    2.5051791800
24   
Generated by ForceBalance from scan.xyz: Frame 14 of 24
C        1.3060838945    3.1045820161    4.3655626414
C        2.6249063811    2.0660376988    2.8863308524
C        2.2871383060    3.9453501602    3.9074024489
C       -1.6080700316    1.9433410527    2.8343559553
C       -0.1519318815    0.8454677704    1.1558566667
C        2.5689736263    5.3797607684    4.2420952225
N        3.0981318247    3.2850800785    2.9889246993
N        1.5363065870    1.8835983347    3.7233609167
N       -0.6683095768    0.8501515054    2.5337797522
O        1.2731897441   -0.5893277876    3.2660064280
O       -0.2167534869    0.5703928767    5.0018123683
O        2.6056448728    6.1975013573    3.0705561519
S        0.4564708531    0.5230363295    3.7167921897
H        0.5160383289    3.2171833091    5.0927877426
H        3.0165377902    1.2612853783    2.2790062578
H       -1.9803022405    1.8354669772    3.8522567920
H       -1.1450557514    2.9310036255    2.7063583739
H       -2.4492876693    1.8511147146    2.1435340724
H        0.4754300267   -0.0317594573    1.0027606382
H       -1.0103591119    0.7816615339    0.4833740001
H        0.4151383775    1.7579155322    0.9251737119
H        1.7818805033    5.7835080077    4.8831012823
H        3.5213472848    5.4493241490    4.7869932933
H        3.2038823870    5.7558622984    2.4441166363
24   
Generated by ForceBalance from scan.xyz: Frame 15 of 24
C        1.3737671409    3.0271823126    4.4938592184
C        2.5004434956    2.0859859308    2.8075842982
C        2.2642219256    3.9119390304    3.9445271048
C       -1.5148559369    2.0324345307    2.7735474166
C       -0.1563964102    0.7009753026    1.1817576848
C        2.5591435286    5.3386576487    4.3007969700
N        2.9577658157    3.3115249635    2.8967485060
N        1.5509001298    1.8324230981    3.7861564727
N       -0.6642059044    0.8503379927    2.5540003250
O        1.1886078493   -0.6531327593    3.3961921458
O       -0.2897365098    0.6366434346    5.0404460994
O        2.4474931930    6.1981030528    3.1647281945
S        0.4130651996    0.5136592761    3.7760119962
H        0.6737417481    3.0925283800    5.3131835918
H        2.8315369977    1.3176114915    2.1218883200
H       -1.9153573845    2.0109521512    3.7862210641
H       -0.9672164541    2.9696444582    2.6072727218
H       -2.3465902571    1.9735838199    2.0678663970
H        0.4316574790   -0.2127713982    1.1058366077
H       -1.0211422204    0.6153883948    0.5195376494
H        0.4468605596    1.5642340884    0.8691531614
H        1.8439886372    5.7017694762    5.0425029046
H        3.5662905043    5.4090125511    4.7362509394
H        2.9746284694    5.7899890342    2.4569231854
24   
Generated by ForceBalance from scan.xyz: Frame 16 of 24
C        1.4548720941    2.9548878177    4.5658318466
C        2.3366763536    2.1800010141    2.6656459403
C        2.2525036290    3.8990774416    3.9759298967
C       -1.4253642003    2.1253553660    2.6134461165
C       -0.2132907484    0.5411360721    1.1340838167
C        2.5871737644    5.2965237187    4.4065231902
N        2.7944867600    3.4013910188    2.7931753324
N        1.5437910495    1.8214678483    3.7471470260
N       -0.6750624257    0.8641934553    2.4918862167
O        1.0915655613   -0.6815001126    3.4457275158
O       -0.3628042857    0.7348392968    4.9923013325
O        2.3431840189    6.2402344374    3.3621149092
S        0.3590585433    0.5346292059    3.7480640580
H        0.8600595298    2.9454638210    5.4665328739
H        2.5811532753    1.4801440742    1.8779141747
H       -1.8254195464    2.2177378802    3.6223537436
H       -0.8008675845    2.9972764671    2.3776266152
H       -2.2597153802    2.0813435721    1.9098039947
H        0.3545075153   -0.3882497035    1.1506282445
H       -1.0998295068    0.3976393990    0.5113398192
H        0.3949709129    1.3477392474    0.7039110814
H        1.9639470569    5.5934774566    5.2531829053
H        3.6384698661    5.3426142998    4.7256911330
H        2.7757766224    5.8882090216    2.5655751564
24   
Generated by ForceBalance from scan.xyz: Frame 17 of 24
C        1.5872923729    2.9977056244    4.6356820253
C        2.1093903499    2.4382016439    2.5388194751
C        2.3193663389    3.9864213282    4.0334572629
C       -1.4267067436    2.0854855145    2.4050278553
C       -0.2286730930    0.2725594879    1.1819074842
C        2.7790007867    5.3141854297    4.5595419112
N        2.6365916835    3.6232542282    2.7272013594
N        1.4857607748    1.9740311861    3.6865128617
N       -0.6557137037    0.8347816388    2.4703492102
O        1.0819008578   -0.5759331376    3.6493270383
O       -0.4336153016    0.9764858148    4.9808088940
O        2.4188395126    6.3816905775    3.6814901041
S        0.3291202593    0.6580872213    3.7859447914
H        1.1329407044    2.9027531886    5.6100423742
H        2.1899105573    1.8396069246    1.6418477170
H       -1.8051502522    2.3358842497    3.3954199866
H       -0.8215235960    2.9153062248    2.0167044004
H       -2.2767015015    1.9177015169    1.7395248163
H        0.3967505087   -0.6027837374    1.3511861688
H       -1.1262928389   -0.0383038051    0.6406689158
H        0.3120773467    1.0089095003    0.5736800607
H        2.3097934899    5.5243494352    5.5234856808
H        3.8683907585    5.2942142421    4.7090807114
H        2.6883010607    6.1068135960    2.7885439383
24   
Generated by ForceBalance from scan.xyz: Frame 18 of 24
C        0.9710560672    3.1778061161    3.6748337030
C        2.4919371711    2.2112629074    4.9924490681
C        2.0326903084    4.0175157952    3.8951031689
C        2.2931319711   -0.9491881769    3.5613414505
C        1.6901242595   -1.0823827740    5.9950750520
C        2.2964722897    5.4038922186    3.3859445697
N        2.9708070600    3.4010426457    4.7155250554
N        1.2597877439    2.0186075061    4.3968110195
N        1.3420707510   -0.6441363005    4.6376594962
O       -0.6030811560    0.6596919188    5.5658676202
O       -0.2544339162    0.5141959462    3.0530318206
O        3.5781364225    5.5062692193    2.7639340962
S        0.2694614582    0.5768812006    4.4071647114
H        0.0734689926    3.2631789877    3.0809169084
H        2.9601054712    1.4661625564    5.6200121959
H        1.8542577190   -0.6899356015    2.5984814143
H        3.2380835569   -0.4076766802    3.6924021149
H        2.4874299695   -2.0249437445    3.5751478848
H        0.9216911452   -0.7577315044    6.6947833461
H        1.7321718490   -2.1753006947    6.0013428942
H        2.6649879299   -0.6887681629    6.3086480010
H        1.5551470292    5.6797383666    2.6323190978
H        2.2184893380    6.1197752522    4.2173982779
H        4.2117601933    5.0816565679    3.3669365424
24   
Generated by ForceBalance from scan.xyz: Frame 19 of 24
C        0.9618491282    3.2327242110    3.6806690807
C        2.6230192883    2.1163452121    4.6677150512
C        2.0414556597    4.0514169058    3.8954747888
C        2.2830192187   -1.1860957403    3.6114493582
C        1.5666396741   -0.9623140314    6.0117626487
C        2.2434327891    5.4995563709    3.5608580473
N        3.0666690611    3.3412329391    4.5090970765
N        1.3340361772    1.9877714204    4.1867503358
N        1.3437080828   -0.6394131629    4.5977006583
O       -0.6664199546    0.7482048050    5.2178895723
O       -0.0618896209    0.4022080222    2.7742061415
O        3.4301719715    5.7085306490    2.7936793259
S        0.3201865715    0.5636734983    4.1669979364
H       -0.0010962219    3.3917552877    3.2181932170
H        3.1628611734    1.2952948221    5.1170001780
H        1.9601030252   -0.9182291369    2.6064093536
H        3.2996315305   -0.8113434370    3.7802440892
H        2.2818886796   -2.2766136105    3.6980718495
H        0.7935025678   -0.4986400898    6.6223066133
H        1.5063478873   -2.0478303852    6.1346653775
H        2.5528794858   -0.6191706134    6.3471767434
H        1.4091700665    5.8710528122    2.9611819601
H        2.2824746426    6.0868899179    4.4900622094
H        4.1368905644    5.2089506086    3.2366374061
24   
Generated by ForceBalance from scan.xyz: Frame 20 of 24
C        0.9318137720    3.2456456021    3.7431381874
C        2.7200409173    2.0723550827    4.3796807080
C        2.0237642513    4.0620182897    3.8952699655
C        2.2940172154   -1.3478101042    3.7121521276
C        1.5854076508   -0.7740251129    6.0566910725
C        2.1653715720    5.5418068098    3.6948079281
N        3.1278948665    3.3166449045    4.2918291344
N        1.3795855214    1.9643092362    4.0623761827
N        1.3774093392   -0.6358903099    4.6105677929
O       -0.6752561574    0.7814495721    4.9960570763
O        0.1036188257    0.2634103562    2.6306483908
O        3.2426882170    5.8589961016    2.8124085351
S        0.3824212051    0.5282510461    4.0318664457
H       -0.0900044721    3.4323013904    3.4471193888
H        3.3234004468    1.2212673732    4.6604911819
H        2.0097948199   -1.1676149373    2.6766138057
H        3.3309897235   -1.0265402809    3.8673909791
H        2.2176286898   -2.4202747465    3.9146654509
H        0.7919785910   -0.2569554763    6.5943049901
H        1.5444859860   -1.8368342435    6.3126522569
H        2.5577188412   -0.3678598416    6.3603911027
H        1.2575440758    5.9535321280    3.2476138601
H        2.3156442560    6.0291775357    4.6694726226
H        4.0031059033    5.3268998649    3.1021823042
24   
Generated by ForceBalance from scan.xyz: Frame 21 of 24
C        0.9929010335    3.2460981807    3.8157071293
C        2.8368979312    2.0183144902    4.0871831220
C        2.0965805200    4.0470188787    3.9623872572
C        2.3224330678   -1.4633498748    3.8206883941
C        1.5586253202   -0.5515371625    6.0323212122
C        2.2179382213    5.5417185960    3.9541500721
N        3.2359636739    3.2673264018    4.1295964204
N        1.4699872202    1.9376476268    3.8977734013
N        1.3756142227   -0.6368022565    4.5787380609
O       -0.6748204119    0.8360557224    4.6553956201
O        0.3405547000    0.1413977931    2.4238661861
O        3.1509305445    5.9971545377    2.9727215642
S        0.4705897294    0.5051015738    3.8242644083
H       -0.0574173555    3.4572604998    3.6804274109
H        3.4666072579    1.1441154039    4.1718968083
H        2.0912085849   -1.4085053091    2.7582058769
H        3.3580572646   -1.1426931243    3.9885231346
H        2.2155332917   -2.5010185628    4.1502115265
H        0.7246506604   -0.0103130618    6.4775392381
H        1.5667865419   -1.5676934243    6.4363138362
H        2.5001289369   -0.0515352410    6.2908885034
H        1.2563453523    5.9996305516    3.7110205885
H        2.5173751434    5.8886475982    4.9540676169
H        3.9524704167    5.4577663001    3.0803222669
24   
Generated by ForceBalance from scan.xyz: Frame 22 of 24
C        0.9961170697    3.1543845146    3.8985476984
C        2.8516899365    1.9381577005    3.6477737926
C        2.1147000167    3.9378965805    4.0170906597
C        2.3388074816   -1.5028671780    4.0100652688
C        1.4695888399   -0.2826368013    6.0093256933
C        2.2421882018    5.4128219376    4.2536798437
N        3.2617020018    3.1657002979    3.8574737893
N        1.4692586864    1.8645878732    3.6442513947
N        1.2993165885   -0.6475755700    4.5968516467
O       -0.7207171132    0.8364308401    4.3455394039
O        0.4717722124   -0.0986120334    2.2854116649
O        2.9645004661    6.0646576629    3.2069580378
S        0.4802014676    0.4201792753    3.6414365647
H       -0.0611704852    3.3599847019    3.9691376295
H        3.4802455674    1.0799699491    3.4551284880
H        2.1452132463   -1.6427498685    2.9477600046
H        3.3421034406   -1.0821420302    4.1544982094
H        2.2928995195   -2.4768509593    4.5052437895
H        0.5749583619    0.2249090940    6.3684456476
H        1.5980406246   -1.2051078104    6.5810184034
H        2.3466779947    0.3606232403    6.1588531162
H        1.2545160827    5.8781744604    4.2897339427
H        2.7362996160    5.5847224983    5.2211724594
H        3.7736594075    5.5460029083    3.0618810782
24   
Generated by ForceBalance from scan.xyz: Frame 23 of 24
C        0.9930540450    2.9766386223    3.9624742803
C        2.7418439463    1.8512283342    3.1471631112
C        2.1308709356    3.7385543663    4.0102585824
C        2.4463759734   -1.3669009371    4.2079193472
C        1.3087918943   -0.0573228551    5.9825385578
C        2.3333677855    5.1489234526    4.4765530297
N        3.2109407880    3.0235633822    3.4973020587
N        1.3752029675    1.7654449059    3.3738007778
N        1.2432609747   -0.6377914577    4.6323749125
O       -0.8044607598    0.7118625161    4.0874165314
O        0.5723479211   -0.3802792554    2.2143420720
O        2.8594015800    5.9865476133    3.4457234464
S        0.4526698541    0.2850373704    3.4985648761
H       -0.0310791208    3.1563296210    4.2520253665
H        3.2961732900    1.0534872808    2.6717583580
H        2.3239577484   -1.7148777308    3.1831843642
H        3.3511883408   -0.7505601824    4.2918776123
H        2.5520799734   -2.2370290542    4.8610262615
H        0.3373205872    0.3539745811    6.2535060643
H        1.5524277738   -0.8636693795    6.6782132214
H        2.0785736903    0.7231089773    6.0536832939
H        1.3808694530    5.5882526487    4.7817234788
H        3.0048511702    5.1500974900    5.3479452660
H        3.6141261207    5.5121887837    3.0581116181
24   
Generated by ForceBalance from scan.xyz: Frame 24 of 24
C        1.0768515778    2.8980816458    4.0703608392
C        2.6921681434    1.8729506902    2.9129147364
C        2.1987487075    3.6818350376    3.9951802606
C        2.5497026087   -1.2234617432    4.2938842250
C        1.1467125729   -0.0904245328    5.9941577078
C        2.4529077585    5.0628667256    4.5204069702
N        3.1938050895    3.0300785300    3.2703353710
N        1.3822083131    1.7384700343    3.3490447347
N        1.2400967132   -0.6490108197    4.6352925510
O       -0.8113585291    0.6406861617    3.9559098978
O        0.7093720081   -0.4213181330    2.1779230789
O        2.8010325419    5.9780013836    3.4805182629
S        0.4902079559    0.2462022610    3.4478624380
H        0.1008416202    3.0413848253    4.5088362928
H        3.1718528643    1.1182101683    2.3043368760
H        2.5229925531   -1.6206692173    3.2799827228
H        3.3600125789   -0.4879734320    4.3896741892
H        2.7373020519   -2.0483109044    4.9855646659
H        0.1223047059    0.2219632503    6.1919637740
H        1.4116089110   -0.8851189342    6.6953598104
H        1.8304353294    0.7572899168    6.1374626865
H        1.5538896570    5.4587742977    4.9985035886
H        3.2518138162    5.0225721037    5.2756636249
H        3.4909792614    5.5470725338    2.9482967118
