15

C     -0.22914    0.65491   -2.09032
C     -0.99869    0.25902   -3.14785
C     -0.45377   -0.16444   -0.94245
C     -1.39154   -1.18069   -1.14062
C     -2.02541   -2.32957   -0.39122
N     -1.65250   -2.57505    0.88349
N      0.29386    0.14369    0.26901
O      0.04258   -0.46356    1.32449
O     -2.85542   -3.01402   -0.99603
O      1.15475    1.02265    0.18872
S     -1.98752   -1.10147   -2.76736
H      0.46634    1.48367   -2.09748
H     -1.03515    0.70073   -4.13583
H     -2.12713   -3.33286    1.35762
H     -1.03042   -1.94742    1.38069
