17   

C        5.9158521330    0.1245285538   -0.8427791293
C        4.6764425716   -0.6282312984   -1.0436197808
C        5.9741688575    1.0500047057    0.1689330107
C        3.5816452153   -0.4470019345   -0.2372720023
C        4.8146093081    1.2603978262    1.0111313965
C        2.2659951024   -1.1421536125   -0.4086026817
C        2.1075632339   -2.3280659132   -1.3497843262
N        3.6763778105    0.5186271828    0.7948159720
O        4.8242462493    2.0843598274    1.9084028670
O        1.2844112229   -0.7092932295    0.1842437942
H        6.7741295555   -0.0417735583   -1.4858066018
H        4.6406100718   -1.3400600856   -1.8607793940
H        6.8598144313    1.6392565672    0.3624002556
H        2.8164826104   -3.1141602515   -1.0769387679
H        2.2903111532   -2.0123242132   -2.3800315646
H        1.0919025187   -2.7272772606   -1.2764445456
H        2.8787424242    0.7381231765    1.3833152369
17   

C        5.9079747092    0.1528480731   -0.8595982687
C        4.6589055294   -0.5745044709   -1.0908287193
C        5.9890273686    1.0089949671    0.2099258871
C        3.5834660551   -0.4497416214   -0.2487894074
C        4.8432078058    1.1730586286    1.0809012925
C        2.2471792405   -1.0928431639   -0.4736933631
C        2.1024881971   -2.3407471616   -1.3332313916
N        3.6987490327    0.4483619434    0.8404132782
O        4.8687074141    1.9445892334    2.0233293956
O        1.2419971995   -0.5386245452   -0.0465966649
H        6.7539931508    0.0251104729   -1.5272153002
H        4.5971822213   -1.2172855853   -1.9618579477
H        6.8814239584    1.5797459964    0.4264501241
H        2.7448696847   -3.1339393052   -0.9417089929
H        2.3838017546   -2.1193495084   -2.3656402241
H        1.0646330741   -2.6854677571   -1.3153674015
H        2.9024989245    0.6663354058    1.4308884486
17   

C        5.8956778778    0.2012278982   -0.9323448678
C        4.6328663803   -0.5018082196   -1.1635495827
C        6.0321054338    0.9650127719    0.1996925143
C        3.6045282893   -0.4538555016   -0.2576512753
C        4.9292381594    1.0586991777    1.1343349076
C        2.2465296070   -1.0559567065   -0.4933323175
C        2.0801107557   -2.3589224545   -1.2641538394
N        3.7723249510    0.3541490999    0.8932925165
O        5.0007247240    1.7538765691    2.1321660701
O        1.2512824461   -0.4054407909   -0.2061265544
H        6.7073697987    0.1300840932   -1.6491921271
H        4.5223791660   -1.0566358209   -2.0881608993
H        6.9362957402    1.5157886628    0.4189984375
H        2.4656217149   -3.1878939956   -0.6647419090
H        2.6183471086   -2.3175082572   -2.2132895344
H        1.0206091777   -2.5351989363   -1.4706782286
H        3.0021144595    0.5467524752    1.5249703797
17   

C        5.8836029871    0.2582816717   -0.9781710639
C        4.6132479791   -0.4209492860   -1.2363174634
C        6.0403606586    0.9450812769    0.1999127629
C        3.6013425379   -0.4282471819   -0.3126142550
C        4.9507353863    0.9836507049    1.1544694403
C        2.2352875803   -1.0068648768   -0.5900788114
C        2.0829501604   -2.3860420708   -1.2178046548
N        3.7851199783    0.3038178316    0.8852623254
O        5.0406364366    1.6093977820    2.1957964854
O        1.2549137168   -0.2830536710   -0.5134046149
H        6.6840311201    0.2309571566   -1.7105198515
H        4.4775944688   -0.9081829787   -2.1955156502
H        6.9508707782    1.4757271473    0.4415700118
H        2.1350033567   -3.1464227893   -0.4341493085
H        2.8756344101   -2.5722783145   -1.9453175291
H        1.1154895401   -2.4614217031   -1.7220337658
H        3.0271712913    0.4674841239    1.5387349267
17   

C        5.8667963970    0.3797743324   -1.0421656132
C        4.5899982013   -0.2778304771   -1.3226331220
C        6.0452657673    0.9858813823    0.1765707338
C        3.5912782317   -0.3358162693   -0.3893739771
C        4.9707006821    0.9642575734    1.1489272816
C        2.2241240464   -0.9227172934   -0.6800819235
C        2.0872052407   -2.3889208362   -1.0620190476
N        3.7946227458    0.3145639017    0.8516373656
O        5.0829259384    1.5083064987    2.2330609367
O        1.2725267753   -0.1776292616   -0.8361910436
H        6.6554690904    0.3967848841   -1.7874553260
H        4.4330535621   -0.7154140074   -2.3028979759
H        6.9627022804    1.4942744679    0.4390035643
H        2.0415787069   -2.9963434959   -0.1543285938
H        2.9447295796   -2.7071554750   -1.6597176306
H        1.1718315971   -2.5416806946   -1.6403879772
H        3.0559939786    0.4288952565    1.5362786735
17   

C        5.8226430512    0.5267111156   -1.1289760470
C        4.5511075813   -0.1149899769   -1.4645072484
C        6.0047950237    1.0086875492    0.1435071464
C        3.5478537131   -0.2468975202   -0.5457813942
C        4.9392068523    0.8744905881    1.1166460902
C        2.2190782802   -0.9123643688   -0.8553202577
C        2.0182805829   -2.3859386731   -0.5403706990
N        3.7625096295    0.2562204209    0.7605477944
O        5.0612232069    1.2864759092    2.2564317290
O        1.2871430145   -0.2533364983   -1.2786800561
H        6.6064901461    0.6226364245   -1.8733913261
H        4.4000437587   -0.4877255994   -2.4723875580
H        6.9207766161    1.4943003658    0.4504445109
H        2.4318556759   -2.6153802834    0.4450771247
H        2.5294436470   -2.9925696841   -1.2923372801
H        0.9520790442   -2.6290695037   -0.5467864682
H        3.0419993582    0.2703936578    1.4728286547
17   

C        5.7974501368    0.6506522208   -1.1635236105
C        4.5367766902    0.0094347126   -1.5381775611
C        5.9881631879    1.0202686558    0.1447216578
C        3.5413465505   -0.2103252775   -0.6269185319
C        4.9418644214    0.7708684235    1.1158295280
C        2.2620803939   -0.9397178983   -0.9788140454
C        1.9375262769   -2.2635495324   -0.3017556317
N        3.7713772618    0.1649551092    0.7202596400
O        5.0751654352    1.0697881520    2.2890598589
O        1.3949635532   -0.3917246713   -1.6356852497
H        6.5680664061    0.8293669259   -1.9064989075
H        4.3862063723   -0.2948646120   -2.5691217011
H        6.8983898583    1.4962841648    0.4823024360
H        2.2958899828   -2.2635210300    0.7304494895
H        2.4260619730   -3.0759418221   -0.8461958729
H        0.8569901924   -2.4316410472   -0.3049072844
H        3.0721017994    0.0818953506    1.4484014050
17   

C        5.7613837798    0.7971998334   -1.1484610405
C        4.5144051611    0.1466355658   -1.5509756486
C        5.9762197540    1.0477478276    0.1842006595
C        3.5492855179   -0.1866642816   -0.6395001967
C        4.9682140800    0.6668785778    1.1535468726
C        2.3169975310   -0.9543562677   -1.0464371933
C        1.8921432785   -2.1857152950   -0.2586334774
N        3.8063340225    0.0616295537    0.7321997141
O        5.1269933760    0.8520054502    2.3468903924
O        1.5514733184   -0.5003881308   -1.8801609597
H        6.5041413737    1.0728323618   -1.8901852012
H        4.3485764351   -0.0744691970   -2.6009237101
H        6.8793034862    1.5221337783    0.5426205461
H        1.7520062344   -1.9334711181    0.7949375072
H        2.6625482245   -2.9566295077   -0.3452705149
H        0.9531441552   -2.5790106224   -0.6585233054
H        3.1428696882   -0.1355676211    1.4713381837
17   

C        5.7522482345    0.8922190652   -1.1352176523
C        4.5300369650    0.2111095919   -1.5620081477
C        5.9808319960    1.0607366404    0.2081123400
C        3.5998078717   -0.2308578743   -0.6592301219
C        5.0117734349    0.5645698573    1.1651439618
C        2.4004493313   -1.0193468075   -1.1057766625
C        1.8642646839   -2.1567946423   -0.2480467630
N        3.8709519230   -0.0650650940    0.7223851929
O        5.1850494988    0.6740813262    2.3657773691
O        1.7582558882   -0.6634972888   -2.0813397249
H        6.4662885061    1.2538385521   -1.8681560963
H        4.3548380321    0.0546260919   -2.6222558776
H        6.8673436820    1.5527927599    0.5836623644
H        1.4180407397   -1.7585954938    0.6663801717
H        2.6791771166   -2.8382973878    0.0108452610
H        1.1040742370   -2.7136210183   -0.8034168542
H        3.2407383970   -0.3591096963    1.4583055601
17   

C        5.7388565308    0.9568458565   -1.1176602270
C        4.5306667650    0.2565790621   -1.5532354355
C        6.0049270617    1.0442304076    0.2264701958
C        3.6525239341   -0.2904090779   -0.6549309504
C        5.0887193884    0.4446116480    1.1761547440
C        2.4539807443   -1.0677588776   -1.1180386673
C        1.8004856167   -2.1018766806   -0.2114648415
N        3.9606942607   -0.2028199743    0.7264078040
O        5.2935482266    0.4857815740    2.3761101758
O        1.9254363648   -0.7978429940   -2.1860423422
H        6.4128739453    1.3969559906   -1.8455472733
H        4.3259649812    0.1719684392   -2.6165006024
H        6.8827937121    1.5473591875    0.6075997851
H        1.3527133639   -1.6099949819    0.6555352762
H        2.5492169685   -2.8247351426    0.1236506732
H        1.0189134860   -2.6351238658   -0.7603296297
H        3.3723983920   -0.5784582361    1.4597905802
17   

C        5.7067602831    1.0081258224   -1.1239322842
C        4.5285726370    0.2636271177   -1.5683312255
C        5.9966863940    1.0499358387    0.2173453120
C        3.7054487251   -0.3787117590   -0.6805186374
C        5.1342519226    0.3600140345    1.1556992836
C        2.5197847827   -1.1718559100   -1.1493680730
C        1.7700936666   -2.0938135230   -0.1968875948
N        4.0334610292   -0.3276590598    0.6983744927
O        5.3584642051    0.3637684841    2.3528852350
O        2.1089247694   -1.0374983989   -2.2928067971
H        6.3400598855    1.5167447587   -1.8436945948
H        4.3054328422    0.2233276407   -2.6305161262
H        6.8541367175    1.5830138827    0.6041912323
H        1.3201851820   -1.5103874326    0.6103980351
H        2.4586249586   -2.8319891079    0.2228901914
H        0.9775383682   -2.6198754406   -0.7369210542
H        3.4866312956   -0.7728708022    1.4248331732
17   

C        5.6717646182    1.0639868050   -1.1340210574
C        4.5259456542    0.2763829557   -1.5887287339
C        5.9832867231    1.0694224974    0.2030782025
C        3.7611081864   -0.4517666124   -0.7150190569
C        5.1749328104    0.2996601473    1.1273708372
C        2.5868448279   -1.2571693550   -1.1917704492
C        1.7421274992   -2.0633438953   -0.2139985462
N        4.1046675077   -0.4287648081    0.6608391069
O        5.4152194392    0.2758494951    2.3212039938
O        2.2979993940   -1.2712463204   -2.3796747577
H        6.2640297533    1.6334473764   -1.8430738144
H        4.2820115143    0.2740339661   -2.6470954065
H        6.8181036518    1.6324853955    0.5968809252
H        1.2978106797   -1.3974644777    0.5303582570
H        2.3637063170   -2.8108476707    0.2857628011
H        0.9393076752   -2.5756261087   -0.7521274609
H        3.5985472026   -0.9344674191    1.3771265616
17   

C        5.6032440772    1.1133733364   -1.1463752484
C        4.4926711631    0.2748161843   -1.5973546048
C        5.9437643350    1.1025979345    0.1836735506
C        3.7972412227   -0.5256767852   -0.7290774165
C        5.1999606624    0.2661135122    1.1043628970
C        2.6353004122   -1.3529533395   -1.1978756225
C        1.7039736914   -2.0278622584   -0.1997276690
N        4.1628088723   -0.5106984833    0.6410702437
O        5.4626586313    0.2322514793    2.2932233653
O        2.4609359928   -1.5396935368   -2.3933267147
H        6.1464567192    1.7334592006   -1.8522292809
H        4.2182236113    0.2912810981   -2.6481042743
H        6.7541438402    1.7020655259    0.5747774850
H        1.2736631937   -1.2789735405    0.4704880409
H        2.2562923484   -2.7688178156    0.3837504699
H        0.8915972401   -2.5310381246   -0.7320564068
H        3.7051727995   -1.0663094749    1.3530019104
17   

C        6.2646324506   -0.1042235203   -0.0290563578
C        5.2016605974   -1.0996667743   -0.1668776868
C        5.9218058852    1.2224928102    0.0569985478
C        3.8791654531   -0.7420714901   -0.1881625351
C        4.5240707894    1.6032857543    0.0099159176
C        2.8031174041   -1.7669852026   -0.4035259428
C        1.4439519131   -1.3619585818   -0.9576063970
N        3.5532291563    0.6360901282   -0.1161152796
O        4.1763999313    2.7692041758    0.0673656771
O        2.9716906851   -2.9186865758   -0.0316716827
H        7.3052980413   -0.4106087666    0.0019434149
H        5.4707810127   -2.1484267212   -0.2521725615
H        6.6633446912    2.0028977871    0.1576782887
H        1.5749785780   -0.8266931467   -1.9019316932
H        0.9240844848   -0.7201627271   -0.2420866665
H        0.8374787148   -2.2536275591   -1.1408498499
H        2.6055460012    0.9922103840   -0.1270406204
17   

C        6.2553280402   -0.1198954439   -0.0979051896
C        5.1842672215   -1.1105400017   -0.2042676826
C        5.9202016307    1.2013263134    0.0671634377
C        3.8645757574   -0.7562803635   -0.1116008681
C        4.5227519187    1.5807219181    0.1331815701
C        2.7738708443   -1.7682767120   -0.3256359304
C        1.4847954687   -1.3727880743   -1.0319322278
N        3.5450878174    0.6170891566    0.0355408966
O        4.1810213431    2.7431581357    0.2576816232
O        2.8478610604   -2.8717291498    0.1917436240
H        7.2954629948   -0.4247910723   -0.1524836237
H        5.4427600234   -2.1540499750   -0.3578101183
H        6.6673377910    1.9786795683    0.1482155025
H        1.7203755506   -0.8775123412   -1.9778483175
H        0.9041392669   -0.6956257457   -0.4009450986
H        0.8881420582   -2.2651176289   -1.2420123741
H        2.5989200552    0.9690144198    0.1138053812
17   

C        6.2272844827   -0.1397055780   -0.1880396559
C        5.1392162191   -1.1153863634   -0.2540694984
C        5.9213879439    1.1763666728    0.0554780471
C        3.8350699803   -0.7546262144   -0.0481453543
C        4.5375591280    1.5645827328    0.2427814706
C        2.7100581202   -1.7427273109   -0.2256238851
C        1.4988306111   -1.3739921246   -1.0708125040
N        3.5444004411    0.6141757088    0.1780632109
O        4.2202292842    2.7237660793    0.4406384012
O        2.6670714108   -2.7597157670    0.4460183003
H        7.2568265617   -0.4509588446   -0.3328894617
H        5.3726998293   -2.1537732565   -0.4685823581
H        6.6814919573    1.9432566120    0.1119473842
H        1.8118547707   -1.2187389016   -2.1067905417
H        1.0360553957   -0.4592373903   -0.6935337744
H        0.7633829573   -2.1830682699   -1.0420996474
H        2.6123748498    0.9668910093    0.3578334332
17   

C        6.1992284718   -0.1559825656   -0.3372012621
C        5.0916882610   -1.1108512265   -0.3862459378
C        5.9370151991    1.1430964920    0.0208399772
C        3.8129150645   -0.7479914620   -0.0658629252
C        4.5790718391    1.5339016696    0.3423077769
C        2.6433006371   -1.7024542371   -0.1830686826
C        1.5192571935   -1.4027095086   -1.1643378961
N        3.5669469145    0.6034611688    0.2828716788
O        4.3002396527    2.6786289945    0.6512512186
O        2.4842602734   -2.5917580194    0.6338754262
H        7.2093638690   -0.4692115072   -0.5807420350
H        5.2924778975   -2.1364197652   -0.6795208819
H        6.7130205535    1.8941468394    0.0737988075
H        1.7918726156   -1.7841514070   -2.1518840160
H        1.3501987940   -0.3255547278   -1.2352289584
H        0.5959227949   -1.8886467860   -0.8370140585
H        2.6609075759    0.9457858598    0.5794848392
17   

C        6.1504561118   -0.1305793945   -0.4545318238
C        5.0176085293   -1.0558283334   -0.4961741938
C        5.9448318373    1.1465294108    0.0052425981
C        3.7670383238   -0.6799469887   -0.0927472970
C        4.6202940073    1.5441470630    0.4387957332
C        2.5672923993   -1.6092903455   -0.1280453662
C        1.6352220822   -1.5977705211   -1.3288980449
N        3.5813757656    0.6440393640    0.3744876733
O        4.3951385361    2.6679795026    0.8511508430
O        2.3018030336   -2.3047498404    0.8352369586
H        7.1360947055   -0.4490026013   -0.7784077856
H        5.1790252520   -2.0691556165   -0.8492838065
H        6.7424106751    1.8743553991    0.0617196584
H        2.1056188611   -2.1282508014   -2.1607995670
H        1.4315240358   -0.5674435675   -1.6317667115
H        0.6918901077   -2.0900068613   -1.0763768226
H        2.7072676178    0.9746159115    0.7660672496
17   

C        6.0831807742   -0.0515949261   -0.5977069650
C        4.9153904775   -0.9320337403   -0.6467508212
C        5.9518615667    1.1906262765   -0.0283308436
C        3.6942522182   -0.5328527904   -0.1762688428
C        4.6694947296    1.5967812045    0.5113319877
C        2.4901168763   -1.4522332948   -0.1241555236
C        1.9160489800   -2.0330517287   -1.4077011653
N        3.5919768947    0.7453348683    0.4239014711
O        4.5180312983    2.6826091823    1.0423351703
O        2.1296882091   -1.9088465759    0.9467050932
H        7.0387123473   -0.3778216566   -0.9955603445
H        5.0319130493   -1.9305914901   -1.0545924740
H        6.7797633963    1.8822577660    0.0441273269
H        2.7170328893   -2.2442366467   -2.1202195427
H        1.2247783116   -1.3128658091   -1.8531394759
H        1.3764904086   -2.9592813961   -1.1915118953
H        2.7590840396    1.0552742262    0.9113460330
17   

C        6.0148596808   -0.0062254400   -0.7115336588
C        4.8362524857   -0.8712264875   -0.7783134840
C        5.9152565373    1.2007260379   -0.0653637381
C        3.6299478674   -0.4837633315   -0.2568374593
C        4.6540318470    1.5879246878    0.5341198613
C        2.4285075552   -1.3949924198   -0.1932650926
C        1.9894041211   -2.1960965793   -1.4118010889
N        3.5623541520    0.7582263665    0.4195064493
O        4.5358667538    2.6361147257    1.1434963653
O        1.9368128236   -1.6581980057    0.8929816472
H        6.9555368364   -0.3182989490   -1.1536916587
H        4.9421881246   -1.8482782192   -1.2365770255
H        6.7539789809    1.8768236353    0.0265352852
H        2.8532233819   -2.5275582695   -1.9916743682
H        1.3559194598   -1.5699762027   -2.0455784677
H        1.4183965910   -3.0734112147   -1.0952901016
H        2.7488653773    1.0354852129    0.9577081285
17   

C        5.9795701760    0.0335275957   -0.7635398806
C        4.7850138696   -0.8075839255   -0.8528403173
C        5.9170699877    1.2002463937   -0.0435798488
C        3.5972790777   -0.4367718741   -0.2765392429
C        4.6777950614    1.5703899353    0.6089791053
C        2.3735758340   -1.3102375635   -0.2338681400
C        2.0197295821   -2.2359306765   -1.3903519685
N        3.5701819438    0.7660332222    0.4706135176
O        4.5938390101    2.5805230249    1.2847244147
O        1.7457838108   -1.4009038984    0.8119685009
H        6.9034974927   -0.2650479357   -1.2482942280
H        4.8666473061   -1.7513756464   -1.3796630850
H        6.7691414935    1.8565014806    0.0673794786
H        2.8798744195   -2.8459488019   -1.6737308389
H        1.6997805010   -1.6394926503   -2.2488402147
H        1.2016927197   -2.9000990574   -1.0971537098
H        2.7690154886    1.0218499712    1.0380883985
17   

C        5.9502683210    0.0838724274   -0.8286862929
C        4.7376686839   -0.7309315204   -0.9200157073
C        5.9388436100    1.2040503751   -0.0358308276
C        3.5838576038   -0.3849710869   -0.2639081742
C        4.7341206022    1.5530419026    0.6890543727
C        2.3375478922   -1.2189739994   -0.2410791133
C        2.0390603576   -2.2291957100   -1.3398728531
N        3.6094312322    0.7726164834    0.5518148845
O        4.6953425552    2.5239319179    1.4238663329
O        1.6022919691   -1.1609443702    0.7366537706
H        6.8472609710   -0.1968073791   -1.3712735459
H        4.7742014185   -1.6339725100   -1.5190751164
H        6.8060100073    1.8396980418    0.0781310313
H        2.7903357389   -3.0226650919   -1.3332320099
H        2.0449549707   -1.7287363613   -2.3117805153
H        1.0530393184   -2.6737844049   -1.1774078368
H        2.8240971231    1.0162108318    1.1468646009
17   

C        5.9213977512    0.1137336062   -0.8343032157
C        4.7104396486   -0.6967258578   -0.9751631210
C        5.9203718316    1.1604180999    0.0533135623
C        3.5717258454   -0.4260322904   -0.2598670717
C        4.7276711421    1.4388054947    0.8266528563
C        2.3128572554   -1.2359473146   -0.3117005409
C        2.0916834885   -2.2971040305   -1.3804997771
N        3.6075671957    0.6601336251    0.6487753474
O        4.6952640910    2.3488038897    1.6359432406
O        1.4661278265   -1.0745732063    0.5597979753
H        6.8083001390   -0.1112895270   -1.4178708545
H        4.7357776474   -1.5331508692   -1.6647210891
H        6.7858890162    1.7905698485    0.2043308036
H        2.8260184880   -3.0985135636   -1.2664866973
H        2.1903831612   -1.8490505933   -2.3727014045
H        1.0877155961   -2.7197950545   -1.2820425725
H        2.8155632264    0.8692103234    1.2485725090
17   

C        5.9368578033    0.0968570578   -0.8680473693
C        4.7048948049   -0.6775506742   -1.0288789046
C        5.9794921850    1.0878035740    0.0804131782
C        3.5948888381   -0.4396215293   -0.2587513919
C        4.8110673378    1.3443254915    0.8970162084
C        2.2999404417   -1.1843748567   -0.3600517874
C        2.1025308112   -2.3101231156   -1.3656440870
N        3.6753594596    0.5908653317    0.7100472390
O        4.8120256700    2.2155216213    1.7485603332
O        1.3782794544   -0.8762857794    0.3874910119
H        6.8036266060   -0.1080673818   -1.4881275837
H        4.6894799905   -1.4564335937   -1.7830818286
H        6.8606223316    1.6923884646    0.2450443710
H        2.8228709421   -3.1094856774   -1.1735856143
H        2.2407322739   -1.9291345229   -2.3807803577
H        1.0909880696   -2.7161812395   -1.2749205003
H        2.8848858422    0.8109927958    1.3080686467
