29   

C        1.8051221235    4.7066096251   -3.2802509384
C        1.9096616103    5.2524712933   -1.9990987643
C        1.1981868285    3.4612495132   -3.4547636302
C        1.4218091310    4.5473492974   -0.8928424842
C        0.7108758783    2.7569248955   -2.3481322276
C        0.8485549361    3.2749993255   -1.0405837177
C        0.2759675730    2.6257793909    0.1917838203
C       -0.6919815063   -1.5255706075   -0.0005335988
C        0.2354427914   -0.8698680557   -1.0321674865
C       -1.6710176203   -0.4827445683    0.5525886299
C        0.9697187380    0.3191610925   -0.4044037751
C       -0.9171521779    0.7123828895    1.1428515718
N       -0.0019222566    1.2700659541    0.1449486554
O       -0.0859388115    3.3083949075    1.1443469462
H        2.1786889590    5.2556648473   -4.1374144314
H        2.3610587761    6.2284112303   -1.8600493491
H        1.0895820223    3.0474577969   -4.4510164384
H        1.4934006020    4.9961229935    0.0931339361
H        0.1973777531    1.8186585310   -2.5206463502
H       -0.0945177962   -1.9376891078    0.8198950568
H       -1.2453347020   -2.3491882203   -0.4629191850
H       -0.3564528730   -0.5247060547   -1.8860011012
H        0.9616498113   -1.6025996748   -1.3974797878
H       -2.3062274948   -0.9339890971    1.3212397034
H       -2.3190823652   -0.1310843406   -0.2567534685
H        1.6386087877    0.7716245236   -1.1402212555
H        1.6067499719   -0.0439153699    0.4093675122
H       -1.6476897602    1.4606481511    1.4695511951
H       -0.3473247881    0.3961147165    2.0231834670
29   

C        1.8785085297    4.6475286511   -3.2837345174
C        2.0457693730    5.1570742976   -1.9934323302
C        1.1336027110    3.4817470414   -3.4782387683
C        1.4788441244    4.4951837114   -0.8980696840
C        0.5677955670    2.8210293433   -2.3822096765
C        0.7577989427    3.3052174171   -1.0702888146
C        0.1226482582    2.6820841782    0.1431417382
C       -0.6061604855   -1.5052701862   -0.0002296919
C        0.2652287646   -0.8015333473   -1.0491301380
C       -1.6089877538   -0.5085639491    0.5939227429
C        0.9714333364    0.4083329244   -0.4293108396
C       -0.8855936520    0.7065820004    1.1815932923
N       -0.0206725747    1.3103150615    0.1654569471
O       -0.3378686016    3.3865271655    1.0344786642
H        2.3137310931    5.1634282382   -4.1323730556
H        2.6077417391    6.0714236243   -1.8394750221
H        0.9829317705    3.0962879917   -4.4803701308
H        1.5977041606    4.9105076907    0.0978564992
H       -0.0388051771    1.9392288683   -2.5549294555
H        0.0298651130   -1.9036706937    0.7976483107
H       -1.1401425228   -2.3441832197   -0.4578896815
H       -0.3640356818   -0.4696233652   -1.8811980664
H        1.0081976193   -1.5010044988   -1.4446990505
H       -2.2056560061   -0.9944208737    1.3722811126
H       -2.2918087561   -0.1712226309   -0.1927049764
H        1.5967567167    0.8932686596   -1.1821711744
H        1.6494804318    0.0623559716    0.3582641623
H       -1.6363652111    1.4186169141    1.5413648861
H       -0.2792513983    0.4007758855    2.0408096682
29   

C        1.9172417741    4.5730241708   -3.2657272519
C        2.1254319886    5.0364167558   -1.9633478933
C        1.0663840977    3.4870281734   -3.4895601781
C        1.4897237337    4.4093908162   -0.8852766184
C        0.4321387076    2.8611189431   -2.4107180954
C        0.6528598945    3.3047590175   -1.0913114293
C       -0.0369390100    2.6934606582    0.0982890449
C       -0.5404259806   -1.5007786312    0.0025940543
C        0.2877762615   -0.7544775380   -1.0523564571
C       -1.5560376296   -0.5437351478    0.6396244730
C        0.9740738095    0.4646212319   -0.4284130224
C       -0.8519471062    0.6791392503    1.2351653970
N       -0.0318494650    1.3230502510    0.2065025505
O       -0.6073328984    3.4035325071    0.9178421815
H        2.4061336990    5.0621655926   -4.1008928397
H        2.7734423302    5.8876471192   -1.7871450873
H        0.8901684497    3.1358356661   -4.5000899621
H        1.6407344421    4.7847927322    0.1218930956
H       -0.2449542785    2.0343772022   -2.5954990674
H        0.1243657705   -1.8966962549    0.7778873994
H       -1.0620536837   -2.3452384538   -0.4591255302
H       -0.3690127889   -0.4258221631   -1.8642234691
H        1.0406261509   -1.4257626943   -1.4770144756
H       -2.1211057638   -1.0611779023    1.4211669084
H       -2.2660949187   -0.2099496041   -0.1241920207
H        1.5648692725    0.9792843275   -1.1893447168
H        1.6823405790    0.1271971046    0.3358426380
H       -1.6124364123    1.3600276789    1.6323544282
H       -0.2140924433    0.3734451160    2.0711230067
29   

C        1.9537026975    4.5060362759   -3.2911410496
C        2.2165423833    4.9180628352   -1.9810839094
C        1.0036882429    3.5085560965   -3.5293622859
C        1.5329467946    4.3300876313   -0.9102712197
C        0.3221703806    2.9216753437   -2.4574199299
C        0.5885659209    3.3207272298   -1.1339230950
C       -0.1414099641    2.7241810341    0.0409898917
C       -0.4752308015   -1.4453246555    0.0314762763
C        0.3247734542   -0.6782322421   -1.0309008634
C       -1.4862186054   -0.5070754947    0.7042571751
C        1.0098088645    0.5425335676   -0.4087693105
C       -0.7804054754    0.7150732209    1.2999777036
N        0.0032020765    1.3776856913    0.2551823682
O       -0.8203332745    3.4309238414    0.7753851633
H        2.4795891019    4.9653033220   -4.1207853589
H        2.9450488095    5.6988926090   -1.7935985521
H        0.7894654418    3.1950370043   -4.5449350721
H        1.7285616103    4.6627549124    0.1039778494
H       -0.4242247807    2.1580454774   -2.6475310672
H        0.2094094834   -1.8454882314    0.7869888880
H       -0.9987062986   -2.2884451823   -0.4306463679
H       -0.3513439734   -0.3477353109   -1.8260540891
H        1.0761850096   -1.3363723184   -1.4780880033
H       -2.0281515476   -1.0408923263    1.4911036110
H       -2.2169559106   -0.1704949643   -0.0386704109
H        1.5748687421    1.0726111420   -1.1790508115
H        1.7400498406    0.2089319692    0.3361540868
H       -1.5351733129    1.3810826329    1.7313776211
H       -0.1157157977    0.4048398311    2.1129005112
29   

C        1.9895111205    4.4306541951   -3.3297756055
C        2.2932148821    4.7752293389   -2.0090593575
C        0.9579352815    3.5244597588   -3.5926018550
C        1.5668771688    4.2125830212   -0.9528467427
C        0.2343294187    2.9629136489   -2.5347439812
C        0.5360635878    3.2990662160   -1.2029874935
C       -0.2392574638    2.7103111832   -0.0512225979
C       -0.4120257150   -1.4090488811    0.0438560551
C        0.3943534655   -0.6292089338   -1.0051472380
C       -1.4336586625   -0.4830378389    0.7191644739
C        1.0637222689    0.5939137960   -0.3700211546
C       -0.7383159374    0.7391765087    1.3275500126
N        0.0382313131    1.4124189910    0.2849942795
O       -1.0519163227    3.3874362866    0.5650805685
H        2.5481665542    4.8707037638   -4.1483488380
H        3.0872395583    5.4839743225   -1.8022260339
H        0.7139093658    3.2618372598   -4.6158647864
H        1.7970255273    4.4911854768    0.0701730551
H       -0.5720968312    2.2676173929   -2.7415075298
H        0.2685576967   -1.8130280595    0.8009019165
H       -0.9273703422   -2.2505030229   -0.4303479563
H       -0.2759462017   -0.2983817541   -1.8052310467
H        1.1548285783   -1.2789950625   -1.4491867563
H       -1.9756637369   -1.0270805275    1.4988737021
H       -2.1632458635   -0.1454012870   -0.0245502658
H        1.6282658132    1.1341132598   -1.1342838125
H        1.7909606660    0.2659114426    0.3802092391
H       -1.4945071823    1.3969348552    1.7688068461
H       -0.0699006529    0.4269172456    2.1365381221
29   

C        1.9597772363    4.4102608965   -3.3030147056
C        2.3244892248    4.6304122013   -1.9713058495
C        0.8475311078    3.6161170701   -3.5969084453
C        1.5784828776    4.0548856240   -0.9359369287
C        0.1047950283    3.0418475027   -2.5593022004
C        0.4674564300    3.2511289130   -1.2180446058
C       -0.3382812286    2.6448241007   -0.0958331504
C       -0.3290288262   -1.4195522359    0.0978551542
C        0.4854034155   -0.6210901426   -0.9315011066
C       -1.3826361294   -0.5166780011    0.7561661400
C        1.1142717415    0.6164796129   -0.2818338978
C       -0.7228576636    0.7185157844    1.3777610000
N        0.0518520592    1.4085301857    0.3454717757
O       -1.2834748254    3.2495576902    0.3933961792
H        2.5335601009    4.8603122686   -4.1055309676
H        3.1814626669    5.2529388609   -1.7397170912
H        0.5555866631    3.4506391406   -4.6279159308
H        1.8581498451    4.2372872121    0.0962021427
H       -0.7646167906    2.4350470572   -2.7887204548
H        0.3432408395   -1.8133214428    0.8675127484
H       -0.8180014961   -2.2690392158   -0.3898189969
H       -0.1735071732   -0.3032139567   -1.7463887012
H        1.2688112230   -1.2542658080   -1.3593002009
H       -1.9267056611   -1.0734409748    1.5253552717
H       -2.1060484230   -0.1927859011    0.0002880005
H        1.6808799615    1.1698133630   -1.0354471779
H        1.8321242120    0.3069739037    0.4850161883
H       -1.4954252486    1.3612945295    1.8127681533
H       -0.0581408282    0.4184863728    2.1943469463
29   

C        2.0135241856    4.4404970179   -3.3394677413
C        2.4312116760    4.4847831050   -2.0060939177
C        0.8140028000    3.8041183227   -3.6706060798
C        1.6517733947    3.8891113771   -1.0073823749
C        0.0384195157    3.2094882987   -2.6691505638
C        0.4557238615    3.2344389562   -1.3281257146
C       -0.4009551480    2.6217430880   -0.2491176929
C       -0.2782335072   -1.3978583835    0.1726469881
C        0.5546531461   -0.6283940841   -0.8638866612
C       -1.3707389672   -0.4891311199    0.7545083551
C        1.1374277430    0.6514739868   -0.2531815026
C       -0.7542779869    0.7849496078    1.3401302181
N        0.0389815591    1.4471841895    0.3035105214
O       -1.4451525269    3.1586353931    0.0978292034
H        2.6131460430    4.9064164002   -4.1135248917
H        3.3553257157    4.9878351936   -1.7443380250
H        0.4791085462    3.7780534088   -4.7015080114
H        1.9737851968    3.9386779784    0.0272550838
H       -0.9007000217    2.7304423961   -2.9253827750
H        0.3751075131   -1.7432744768    0.9808090397
H       -0.7340279118   -2.2778703807   -0.2925534339
H       -0.0833916847   -0.3615031733   -1.7131065396
H        1.3638058438   -1.2632973711   -1.2377535185
H       -1.9291325331   -1.0220623108    1.5302705923
H       -2.0748462158   -0.2137457388   -0.0380146175
H        1.7109770466    1.1804222896   -1.0186681410
H        1.8392157689    0.3949392806    0.5472907069
H       -1.5502523923    1.4312935389    1.7249070104
H       -0.1095100784    0.5337853482    2.1885638873
29   

C        2.0040071982    4.4822144106   -3.3445066983
C        2.4607582596    4.3647151969   -2.0288671978
C        0.7514330526    3.9697207490   -3.6920719954
C        1.6678471408    3.7296541807   -1.0656286703
C       -0.0370671391    3.3353889136   -2.7257706596
C        0.4186642098    3.1916231022   -1.4044098548
C       -0.4615813800    2.5462008064   -0.3670669440
C       -0.2496549059   -1.3958369264    0.2697918498
C        0.5921125763   -0.6574378500   -0.7817112844
C       -1.3544043538   -0.4743420944    0.8062016994
C        1.1566792824    0.6500643989   -0.2127202068
C       -0.7504336028    0.8229956538    1.3527195256
N        0.0449420713    1.4570684856    0.3002046945
O       -1.5792037553    2.9909078235   -0.1362023831
H        2.6141968778    4.9785567883   -4.0908919900
H        3.4260670675    4.7737572342   -1.7524430057
H        0.3850968219    4.0707635774   -4.7075436537
H        2.0224249310    3.6585755553   -0.0429621810
H       -1.0177502682    2.9554410166   -2.9931099212
H        0.3951374378   -1.7093363784    1.0975041824
H       -0.6944864243   -2.2939542401   -0.1708514349
H       -0.0364464478   -0.4275113172   -1.6487246683
H        1.4109668527   -1.2989272526   -1.1216789556
H       -1.9186230430   -0.9829550527    1.5939204608
H       -2.0511134854   -0.2312335442   -0.0033970054
H        1.7303197841    1.1521766809   -0.9953676684
H        1.8531197901    0.4317316467    0.6035832289
H       -1.5513341392    1.4789290615    1.7104693454
H       -0.1102707153    0.6047888764    2.2136211845
29   

C        1.9520996413    4.5616884683   -3.2966204400
C        2.4479142648    4.2845381968   -2.0202559021
C        0.6635371481    4.1491852427   -3.6430008716
C        1.6581560684    3.5898808287   -1.0962458673
C       -0.1211859984    3.4548749832   -2.7158434704
C        0.3702120281    3.1489363833   -1.4342014986
C       -0.5136245038    2.4340216378   -0.4489236937
C       -0.2068804621   -1.4248393814    0.4093634865
C        0.6235594405   -0.7225143847   -0.6741455072
C       -1.3228121518   -0.4943627093    0.9040901031
C        1.1701534517    0.6178455127   -0.1674011167
C       -0.7339407184    0.8331124796    1.3926496139
N        0.0519997049    1.4359654201    0.3146187933
O       -1.6806583387    2.7777435640   -0.3024833185
H        2.5601010438    5.1039094884   -4.0122305534
H        3.4419673670    4.6165172549   -1.7424521194
H        0.2664300912    4.3729969284   -4.6267756563
H        2.0482666269    3.4027621291   -0.1016267725
H       -1.1284051128    3.1515853812   -2.9834157081
H        0.4422038915   -1.6929679566    1.2494981381
H       -0.6401000178   -2.3470678311    0.0086909876
H       -0.0091374763   -0.5410963044   -1.5496567932
H        1.4510931499   -1.3668122152   -0.9867781548
H       -1.8813705381   -0.9746057244    1.7132800928
H       -2.0220836541   -0.2958801096    0.0844578987
H        1.7270115334    1.0877586969   -0.9810260247
H        1.8764608204    0.4484545536    0.6520656218
H       -1.5417762547    1.4951510594    1.7228632841
H       -0.0907675003    0.6598974411    2.2614431530
29   

C        1.9576457187    4.6534319245   -3.3048709886
C        2.4834967863    4.2306650971   -2.0824014745
C        0.6397864063    4.3349451177   -3.6362516373
C        1.6946936394    3.4849490725   -1.1979881731
C       -0.1435973486    3.5894616588   -2.7488446826
C        0.3730958681    3.1380447618   -1.5192833069
C       -0.5151527882    2.3495080386   -0.5965922448
C       -0.1957484647   -1.4182320072    0.4911355940
C        0.6390712753   -0.7725136766   -0.6224433848
C       -1.3094755365   -0.4601246988    0.9335640660
C        1.1886044509    0.5897315905   -0.1819590762
C       -0.7168891259    0.8878902710    1.3592035165
N        0.0777577817    1.4404006854    0.2603439713
O       -1.7123191552    2.6048727048   -0.5290699913
H        2.5656332187    5.2342047277   -3.9895688272
H        3.5016996843    4.4892181415   -1.8142183976
H        0.2192990758    4.6686875039   -4.5782794264
H        2.1177868737    3.1954378278   -0.2425233452
H       -1.1708836031    3.3555539040   -3.0104229009
H        0.4496023184   -1.6466075086    1.3457053318
H       -0.6308188005   -2.3574780249    0.1343255797
H        0.0087224637   -0.6326945543   -1.5072666416
H        1.4653807823   -1.4335656195   -0.9016495000
H       -1.8743849715   -0.8977463289    1.7622052930
H       -2.0038919934   -0.2999660174    0.1014168132
H        1.7402654937    1.0144013552   -1.0234634787
H        1.8982357839    0.4596607739    0.6418436968
H       -1.5235432456    1.5693644536    1.6508508031
H       -0.0802235526    0.7545644958    2.2396937713
29   

C        1.9379970485    4.7666770707   -3.2793090935
C        2.4990911421    4.2038504548   -2.1323673824
C        0.5950898323    4.5326156696   -3.5737639214
C        1.7207565962    3.4034737907   -1.2870287281
C       -0.1775005067    3.7324550891   -2.7257221387
C        0.3695258337    3.1418234348   -1.5677926079
C       -0.5160935644    2.2740913200   -0.7136222254
C       -0.2138862559   -1.4025497896    0.6069669185
C        0.6336749225   -0.8211195441   -0.5307167850
C       -1.3294995449   -0.4182117283    0.9791070804
C        1.1836104613    0.5613726468   -0.1601431739
C       -0.7380477940    0.9501016894    1.3384935862
N        0.0788736466    1.4458954107    0.2283664508
O       -1.7305411700    2.4451643757   -0.7227473288
H        2.5386701881    5.3885471318   -3.9336927213
H        3.5385420344    4.3956100526   -1.8909665032
H        0.1469384458    4.9712409406   -4.4582888068
H        2.1843815473    3.0175300031   -0.3869458865
H       -1.2218104179    3.5614109649   -2.9682202943
H        0.4206493606   -1.5838308150    1.4806676244
H       -0.6472574114   -2.3592277442    0.2974813784
H        0.0123022355   -0.7279429161   -1.4279720693
H        1.4604659820   -1.4985654170   -0.7658158032
H       -1.9085308584   -0.8076523057    1.8218589862
H       -2.0110031286   -0.3030749647    0.1289928315
H        1.7361482016    0.9360379023   -1.0247368099
H        1.8907469740    0.4741949566    0.6714587911
H       -1.5473670613    1.6491442210    1.5764488146
H       -0.1186226066    0.8636983550    2.2369004668
29   

C        1.8843181306    4.6142153030   -3.5347712665
C        2.1087693770    3.2655955405   -3.2594412755
C        0.8792083497    5.2956691935   -2.8508194985
C        1.3349775302    2.6027751988   -2.2986016715
C        0.1092918515    4.6286178517   -1.8925895866
C        0.3195241318    3.2657482849   -1.5883655174
C       -0.5218261705    2.6362666259   -0.5067391755
C        0.1629153282   -1.4314043488    0.6245741501
C        1.2845708485   -0.5652016079    0.0355369978
C       -1.1946185891   -0.9627524080    0.0853278024
C        1.0245151558    0.9123480102    0.3452778126
C       -1.4061411219    0.5279928505    0.3652742083
N       -0.2880606062    1.3022504040   -0.1759871354
O       -1.5363817413    3.1995287513   -0.1091435396
H        2.4821428343    5.1281743016   -4.2792061843
H        2.8799010875    2.7270020271   -3.7986702133
H        0.6926402837    6.3432889683   -3.0589118328
H        1.5230572166    1.5468214325   -2.1553995013
H       -0.6644561201    5.1810381727   -1.3684179342
H        0.1708551070   -1.3457132694    1.7166237745
H        0.3248409206   -2.4829851374    0.3671496032
H        1.3270742706   -0.7101698899   -1.0488656742
H        2.2479179236   -0.8688158753    0.4568229443
H       -2.0015595119   -1.5423852887    0.5444975095
H       -1.2309444312   -1.1306847157   -0.9958544236
H        1.8350641503    1.5289503367   -0.0507436482
H        1.0319011522    1.0558294526    1.4312902418
H       -2.3527840568    0.8435132076   -0.0871619398
H       -1.4788592581    0.6978255995    1.4451077098
29   

C        1.9442731665    4.5898244121   -3.4600812818
C        2.0409934186    3.2070855783   -3.2987280828
C        1.0114448162    5.3063177952   -2.7105684430
C        1.2120727534    2.5446799675   -2.3850198052
C        0.1859773650    4.6394970720   -1.7992914031
C        0.2739641300    3.2451463553   -1.6088681681
C       -0.6309372608    2.5946446853   -0.5969014588
C        0.2316531787   -1.3936547624    0.6690273110
C        1.3069855077   -0.5094071268    0.0239001460
C       -1.1534606451   -0.9865409942    0.1514995198
C        1.0102455646    0.9684911205    0.2974626262
C       -1.4113017264    0.5022115954    0.4007210368
N       -0.3338071959    1.3029228027   -0.1837076268
O       -1.6967363481    3.1201332967   -0.2940672015
H        2.5837507173    5.1038557600   -4.1690130505
H        2.7537372882    2.6436078915   -3.8903259650
H        0.9226470609    6.3798669679   -2.8339388008
H        1.2919362357    1.4664752840   -2.3181024319
H       -0.5366825814    5.2109092436   -1.2249462476
H        0.2645686405   -1.2749468206    1.7574937559
H        0.4224107601   -2.4464983239    0.4377943233
H        1.3232908071   -0.6854227711   -1.0565235240
H        2.2914861228   -0.7699980020    0.4246103535
H       -1.9285532965   -1.5823429619    0.6436428841
H       -1.2090071878   -1.1827971820   -0.9241421781
H        1.7880725673    1.5925171237   -0.1489610158
H        1.0535666048    1.1471949144    1.3773283131
H       -2.3796434177    0.7697134081   -0.0364841266
H       -1.4663513234    0.6958933146    1.4774496819
29   

C        2.0244825343    4.5798107048   -3.3812298442
C        2.0125687140    3.1844461638   -3.3307037276
C        1.1474833812    5.3070737310   -2.5749327891
C        1.1307516261    2.5196872818   -2.4700307991
C        0.2688255944    4.6376424183   -1.7165250586
C        0.2538436721    3.2319678160   -1.6370129072
C       -0.7185122337    2.5597071338   -0.7068303022
C        0.2716489903   -1.3418498492    0.6906432468
C        1.3120282244   -0.4458232211    0.0056054688
C       -1.1333760504   -0.9749615237    0.1974744906
C        0.9914271982    1.0304984553    0.2595238402
C       -1.4215054716    0.5107257168    0.4314669540
N       -0.3741550529    1.3262138034   -0.1870526446
O       -1.8289440906    3.0432438436   -0.5179149567
H        2.7038795419    5.0964054630   -4.0500377462
H        2.6807658697    2.6151585515   -3.9670417942
H        1.1415249521    6.3905289035   -2.6161707880
H        1.1198184713    1.4357149620   -2.4744718466
H       -0.4172499660    5.2112556990   -1.1011368392
H        0.3260530227   -1.2034288023    1.7758942491
H        0.4809349990   -2.3940634406    0.4729263858
H        1.3068631707   -0.6403977867   -1.0717031805
H        2.3111850323   -0.6784057833    0.3868192494
H       -1.8835172795   -1.5817722729    0.7141943427
H       -1.2070389320   -1.1881936394   -0.8739064651
H        1.7449220307    1.6583797491   -0.2213237487
H        1.0620737528    1.2319787681    1.3338573475
H       -2.4062908857    0.7457616982    0.0129054769
H       -1.4582606941    0.7190626275    1.5060897366
29   

C        2.0563992314    4.5566341249   -3.2888256656
C        1.9736791013    3.1633324041   -3.3478501003
C        1.2162777886    5.2636436741   -2.4258006135
C        1.0575696644    2.4799349764   -2.5394217527
C        0.3030650559    4.5754848668   -1.6195365893
C        0.2217359212    3.1717670371   -1.6503990003
C       -0.7972227827    2.4656673114   -0.7978951973
C        0.3209091163   -1.3298213321    0.7169882135
C        1.3227445792   -0.4144042605    0.0002403822
C       -1.1056522690   -0.9947931036    0.2637475941
C        0.9794813373    1.0563785890    0.2561074193
C       -1.4196904230    0.4847870591    0.5041908587
N       -0.4063923041    1.3168197263   -0.1485420159
O       -1.9472899315    2.8832148682   -0.7330793774
H        2.7615948935    5.0884343105   -3.9178351364
H        2.6129345813    2.6119024436   -4.0281386700
H        1.2644093568    6.3460601003   -2.3850126419
H        0.9877478640    1.4004321701   -2.6159892419
H       -0.3598694345    5.1305132222   -0.9633858593
H        0.4032663127   -1.1870578863    1.7998758648
H        0.5463160395   -2.3780119192    0.4959200622
H        1.2915462661   -0.6133412386   -1.0758338613
H        2.3369519925   -0.6244325706    0.3538145472
H       -1.8270751824   -1.6172462580    0.8022456510
H       -1.2053121089   -1.2117024239   -0.8048779415
H        1.7055674270    1.6942989915   -0.2527020375
H        1.0795313875    1.2677809654    1.3261221754
H       -2.4232636918    0.6949518310    0.1187804490
H       -1.4271758816    0.6956658012    1.5787630651
29   

C        2.0989297425    4.5257178691   -3.2484954328
C        1.9387690740    3.1466007915   -3.4083249862
C        1.3076736944    5.2131374947   -2.3245315408
C        0.9933970629    2.4570590410   -2.6399486660
C        0.3647487734    4.5191041609   -1.5582315442
C        0.2081405226    3.1291489630   -1.6930707911
C       -0.8442122980    2.4050396348   -0.8950834800
C        0.3295482278   -1.2700580043    0.7522146413
C        1.3086388527   -0.3506999786    0.0088014124
C       -1.1112556883   -0.9421211083    0.3387155840
C        0.9655332220    1.1194878677    0.2679700001
C       -1.4251248904    0.5364039953    0.5877354152
N       -0.4330125161    1.3659064177   -0.0996549513
O       -2.0180241316    2.7482669380   -0.9600292363
H        2.8264968375    5.0627933774   -3.8468050842
H        2.5406051753    2.6123076054   -4.1348625374
H        1.4163611228    6.2854813302   -2.2067768454
H        0.8620894358    1.3902343042   -2.7851365674
H       -0.2626446020    5.0582615721   -0.8558932449
H        0.4406933158   -1.1266872464    1.8323940369
H        0.5538032400   -2.3172724230    0.5253322972
H        1.2510449830   -0.5520366123   -1.0657836548
H        2.3326897387   -0.5548964896    0.3364929723
H       -1.8140974625   -1.5681373380    0.8972010739
H       -1.2398873301   -1.1599776173   -0.7267242166
H        1.6736086351    1.7562735172   -0.2675357132
H        1.0950460533    1.3397047252    1.3329711766
H       -2.4426780917    0.7421086576    0.2388666385
H       -1.3976828965    0.7496214835    1.6613825463
29   

C        2.1036021449    4.4907737786   -3.2036402673
C        1.8690549159    3.1392554599   -3.4732413022
C        1.3690975510    5.1375507730   -2.2057262930
C        0.9046654996    2.4360098669   -2.7418843754
C        0.4066550916    4.4304543709   -1.4763508650
C        0.1739387177    3.0681984938   -1.7274923633
C       -0.8892720635    2.3177926723   -0.9654632325
C        0.3475977728   -1.2116571027    0.7975675202
C        1.3039800672   -0.2719121948    0.0488842039
C       -1.1053921650   -0.9003435729    0.4119669905
C        0.9428594730    1.1920030850    0.3203677055
C       -1.4329054297    0.5727707301    0.6766053706
N       -0.4638988048    1.4114957359   -0.0312514368
O       -2.0758168342    2.5442643936   -1.1645104013
H        2.8460560028    5.0386118356   -3.7732268443
H        2.4284882256    2.6377341840   -4.2549438535
H        1.5378053639    6.1890031279   -2.0017964817
H        0.7163554731    1.3914457737   -2.9654910529
H       -0.1748949067    4.9382282527   -0.7140714989
H        0.4742855006   -1.0773274336    1.8771261523
H        0.5825420157   -2.2534822431    0.5569743989
H        1.2357050476   -0.4666424263   -1.0264085907
H        2.3351496174   -0.4631861005    0.3616721195
H       -1.7894916516   -1.5393397530    0.9788838212
H       -1.2508123305   -1.1129322322   -0.6524786815
H        1.6330725668    1.8407370811   -0.2249553877
H        1.0826439817    1.4127200786    1.3838932172
H       -2.4613764206    0.7713797458    0.3572408226
H       -1.3812269454    0.7818373742    1.7500901262
29   

C        2.0565429742    4.4477698805   -3.1558481320
C        1.7403814023    3.1434433345   -3.5480787353
C        1.4013645368    5.0234814143   -2.0632462130
C        0.7716494046    2.4161648933   -2.8466074454
C        0.4342729774    4.2931012852   -1.3634903471
C        0.1149901674    2.9794732965   -1.7455068607
C       -0.9363997098    2.1890865916   -1.0064844303
C        0.3889957672   -1.1655494575    0.8993530943
C        1.3185119343   -0.1964910941    0.1530970734
C       -1.0725168738   -0.9068260158    0.5051824227
C        0.9037617089    1.2563943368    0.4095581922
C       -1.4487485967    0.5570719403    0.7558128468
N       -0.5057580655    1.4164723704    0.0385988742
O       -2.1141816569    2.2558904824   -1.3332670915
H        2.8025347783    5.0141662031   -3.7021949896
H        2.2405118893    2.6973161573   -4.4003705019
H        1.6367128395    6.0380867290   -1.7619250626
H        0.5210157597    1.4085130321   -3.1606233427
H       -0.0814616167    4.7453652046   -0.5231289638
H        0.5046200619   -1.0223669305    1.9789512242
H        0.6610819420   -2.1997545702    0.6649945253
H        1.2667153689   -0.4004611088   -0.9215753819
H        2.3530587220   -0.3494215586    0.4755755698
H       -1.7371145946   -1.5634305347    1.0751270070
H       -1.2067850644   -1.1330403237   -0.5579923039
H        1.5752067264    1.9236293653   -0.1373221694
H        1.0242862574    1.4928237644    1.4719906127
H       -2.4832771589    0.7235531579    0.4375932270
H       -1.4028600915    0.7785048472    1.8270500634
29   

C        2.0604693553    4.4440653251   -3.1556831256
C        1.6625146965    3.2037609212   -3.6644145874
C        1.4914396228    4.9263195389   -1.9730881270
C        0.6971699379    2.4466717833   -2.9903364219
C        0.5275379004    4.1668962728   -1.3003987778
C        0.1238952267    2.9175151631   -1.8028996571
C       -0.9153942193    2.0836017344   -1.0971213059
C        0.4074771581   -1.1131111035    0.9826491640
C        1.3377823692   -0.1361120251    0.2473897986
C       -1.0472602845   -0.8944933203    0.5417371109
C        0.8830217453    1.3125730229    0.4596733007
C       -1.4592262877    0.5658725589    0.7525164358
N       -0.5168262311    1.4292583557    0.0394896749
O       -2.0533732139    1.9966185332   -1.5402649417
H        2.8040059995    5.0333747463   -3.6807273612
H        2.0966600428    2.8304487487   -4.5851317031
H        1.7921029246    5.8911898395   -1.5803658628
H        0.3823068042    1.4896076527   -3.3928803588
H        0.0812230526    4.5464867925   -0.3875572190
H        0.4876960202   -0.9488866413    2.0624050969
H        0.7090685514   -2.1448305773    0.7748383413
H        1.3246261711   -0.3622180426   -0.8241456579
H        2.3649232237   -0.2590882279    0.6044189258
H       -1.7140548690   -1.5537997967    1.1059264575
H       -1.1466698974   -1.1440301939   -0.5201366768
H        1.5563634303    1.9803900305   -0.0837077344
H        0.9649179508    1.5758975964    1.5194076908
H       -2.4890459364    0.7078630028    0.4079659474
H       -1.4433672211    0.8100403727    1.8196499528
29   

C        1.8501891626    4.4523161183   -3.1940661144
C        0.5185081680    4.5713999169   -2.7843851600
C        2.7419271020    3.6775801886   -2.4462220763
C        0.0784906654    3.9138730771   -1.6296048420
C        2.2998972153    3.0201625345   -1.2926830061
C        0.9593508783    3.1269401888   -0.8775414477
C        0.4508480617    2.4438189795    0.3644946993
C       -1.2071234192   -1.1875492346    0.0749884326
C       -0.6637617073   -0.4025453220   -1.1283793271
C       -1.2896916757   -0.2768346159    1.3084486452
C        0.6866007102    0.2437798253   -0.7960666173
C        0.0739894988    0.3585588535    1.5973269694
N        0.5268349420    1.0730192780    0.4028019599
O       -0.0086205691    3.0988394805    1.2918109338
H        2.1919857799    4.9659447207   -4.0857805608
H       -0.1732690452    5.1788968945   -3.3570556537
H        3.7773428135    3.5915362853   -2.7562241048
H       -0.9522151298    4.0187942197   -1.3066933228
H        2.9970004962    2.4288146053   -0.7088160504
H       -0.5417326983   -2.0302526369    0.2900831024
H       -2.1980483792   -1.5905168183   -0.1581041281
H       -1.3784423489    0.3821950135   -1.3986687603
H       -0.5549262399   -1.0685515689   -1.9898924754
H       -1.6243483474   -0.8510406656    2.1778326640
H       -2.0226318859    0.5167227167    1.1268300484
H        1.0296786096    0.8049238587   -1.6684163494
H        1.4340402518   -0.5327248785   -0.6025834867
H       -0.0066025139    1.0223414208    2.4648117726
H        0.8014654616   -0.4171674462    1.8573482960
29   

C        1.8805562445    4.5310230806   -3.1485646903
C        0.5728829019    4.7477744942   -2.7042235061
C        2.7026543305    3.6234635961   -2.4746127251
C        0.0856306654    4.0526737700   -1.5912064941
C        2.2138511555    2.9287565756   -1.3625750580
C        0.8909203757    3.1245347830   -0.9182011646
C        0.3294387656    2.4302020805    0.2927165648
C       -1.1410846006   -1.2576489015    0.1695986242
C       -0.6365681000   -0.4990187969   -1.0663267020
C       -1.2405203054   -0.3054155495    1.3694704446
C        0.6941517447    0.2054093794   -0.7746733374
C        0.1058248373    0.3820417652    1.6189259234
N        0.5249391812    1.0711664282    0.3972186980
O       -0.2424150690    3.0717039984    1.1662289546
H        2.2590066295    5.0734052527   -4.0078525213
H       -0.0634294074    5.4606590366   -3.2165266548
H        3.7219837948    3.4645355656   -2.8081999411
H       -0.9246836671    4.2370774826   -1.2399553560
H        2.8644335112    2.2414348488   -0.8326759414
H       -0.4463627199   -2.0700748810    0.4070406804
H       -2.1207958514   -1.7001730919   -0.0378774020
H       -1.3807336452    0.2507293684   -1.3558408846
H       -0.5144786869   -1.1911405645   -1.9052072871
H       -1.5482510655   -0.8574263940    2.2627884976
H       -2.0001210197    0.4576493453    1.1673113568
H        0.9973922552    0.7491045402   -1.6720248029
H        1.4729165168   -0.5364006193   -0.5689432709
H        0.0154302669    1.0733989459    2.4637427035
H        0.8599360591   -0.3613422677    1.8967668039
29   

C        1.9376477615    4.6024056542   -3.1052365507
C        0.6597671852    4.9009768684   -2.6250774699
C        2.6759779240    3.5711112570   -2.5192826760
C        0.1165237223    4.1620165922   -1.5677071882
C        2.1315705721    2.8326776695   -1.4626282968
C        0.8294446242    3.1020724471   -0.9897505518
C        0.2101696836    2.3915637721    0.1829030555
C       -1.0915166703   -1.3332907151    0.2658951896
C       -0.6327229203   -0.6143945488   -1.0099511044
C       -1.2015983832   -0.3310596195    1.4227151838
C        0.6790313057    0.1445736162   -0.7749348997
C        0.1271626065    0.4071268313    1.6179648564
N        0.5103726477    1.0558023403    0.3624348831
O       -0.4541208251    3.0147638768    1.0035873481
H        2.3597904452    5.1785632586   -3.9210790952
H        0.0901325903    5.7117574141   -3.0651887671
H        3.6762057178    3.3514650200   -2.8754500001
H       -0.8689809242    4.4146812673   -1.1889673316
H        2.7314052555    2.0592506628   -0.9957721479
H       -0.3673125120   -2.1121503066    0.5264136541
H       -2.0600114086   -1.8146205023    0.0953110137
H       -1.4059020290    0.0979356040   -1.3174576246
H       -0.5030077410   -1.3379590621   -1.8207167597
H       -1.4786390876   -0.8507032652    2.3449657365
H       -1.9875948082    0.3986626588    1.1991126466
H        0.9382529781    0.6616267902   -1.7013162059
H        1.4875379243   -0.5616593904   -0.5588896912
H        0.0289836037    1.1337903671    2.4318298313
H        0.9072339002   -0.3003322610    1.9169716491
29   

C        1.9962357969    4.6922614174   -3.0681432882
C        0.7560048159    5.0577074154   -2.5403909274
C        2.6430546269    3.5508480423   -2.5900029093
C        0.1566419748    4.2747674624   -1.5470713490
C        2.0430537048    2.7682799545   -1.5970505807
C        0.7680906892    3.0993706704   -1.0844893482
C        0.0934719097    2.3673443462    0.0458908221
C       -1.0412492519   -1.3818087128    0.3746458043
C       -0.6362094139   -0.7170834934   -0.9468046875
C       -1.1661896123   -0.3204904769    1.4750783022
C        0.6514099789    0.0994678429   -0.7835560217
C        0.1391293682    0.4730975498    1.6028131395
N        0.4849115239    1.0651225231    0.3085310300
O       -0.6531413600    2.9673497621    0.8122298399
H        2.4623040606    5.3022738829   -3.8339203606
H        0.2590401404    5.9545811147   -2.8928025998
H        3.6191109041    3.2805557701   -2.9770456893
H       -0.7980106936    4.5855681899   -1.1338775004
H        2.5928564686    1.9191548868   -1.2081623730
H       -0.2832155801   -2.1180757436    0.6613597228
H       -1.9943729658   -1.9063588657    0.2513710261
H       -1.4414507295   -0.0500341138   -1.2730680214
H       -0.4977244515   -1.4776089502   -1.7215253855
H       -1.4086347070   -0.7962466344    2.4301212552
H       -1.9817533323    0.3674962327    1.2262869890
H        0.8607608659    0.5800496129   -1.7419128832
H        1.4919261690   -0.5651225892   -0.5576577380
H        0.0280540743    1.2421600318    2.3750766378
H        0.9475890437   -0.1890851929    1.9287496465
29   

C        2.0467095604    4.7868499595   -3.0195127719
C        0.8528155624    5.2003124755   -2.4266000677
C        2.5978796128    3.5518842163   -2.6747597549
C        0.2017666280    4.3728056510   -1.5046811491
C        1.9472224080    2.7240210082   -1.7527707087
C        0.7089210699    3.1030459687   -1.1822024210
C       -0.0175743968    2.3397513217   -0.1006412949
C       -0.9907945755   -1.4163053641    0.4929082450
C       -0.6335532315   -0.8193557589   -0.8727004312
C       -1.1450170089   -0.2916290046    1.5234543015
C        0.6227909018    0.0549248116   -0.7841663637
C        0.1299567226    0.5581030111    1.5825842750
N        0.4487764766    1.0798805817    0.2510465536
O       -0.8480336191    2.9068458554    0.6027355842
H        2.5530019695    5.4310272254   -3.7297601922
H        0.4315991138    6.1686572800   -2.6724627301
H        3.5427661974    3.2430128560   -3.1075809706
H       -0.7148831714    4.7285292778   -1.0444228885
H        2.4460221155    1.8076928201   -1.4638829776
H       -0.1987356506   -2.1012202419    0.8129084092
H       -1.9231215845   -1.9855186844    0.4182312155
H       -1.4699179215   -0.2051088779   -1.2234761497
H       -0.4777740384   -1.6196727021   -1.6028003543
H       -1.3588114314   -0.7129521140    2.5103237643
H       -1.9897667473    0.3464762563    1.2412791753
H        0.7844104151    0.4889236195   -1.7737289080
H        1.4950467143   -0.5620673243   -0.5438944515
H       -0.0053511654    1.3723732427    2.3029482549
H        0.9652867015   -0.0497674769    1.9444635156
