18   

C        4.6331489219    1.3459723205    0.7538182721
C        5.8139906835    1.1162718159    0.0578438414
C        3.5008874128    0.5758692131    0.4819786556
C        5.8525191486    0.1176165059   -0.9129832431
C        3.5148812075   -0.4449182471   -0.4880718959
C        4.7243040729   -0.6614946276   -1.1988641106
C        2.2836726517   -1.2595635898   -0.7409971179
C        0.9255131658   -0.7892420773   -0.2311505943
O        2.3102354744   -2.3131859061   -1.3628699842
O        4.8394502682   -1.6001086829   -2.1827804641
H        4.5933087442    2.1217186776    1.5103738940
H        6.6964253343    1.7112889327    0.2677201302
H        2.6063407984    0.7855760252    1.0569107068
H        6.7762154100   -0.0470306971   -1.4536463818
H        0.7670971570    0.2586431831   -0.4992967740
H        0.8758645514   -0.9036684971    0.8547634380
H        0.1296915015   -1.3874174226   -0.6844095273
H        5.7506973785   -1.6457511996   -2.5119244924
18   

C        4.6560720397    1.3455002647    0.7980864793
C        5.8087066722    1.1619622122    0.0407734650
C        3.5350944513    0.5453601376    0.5677991315
C        5.8294911168    0.1814569167   -0.9507644436
C        3.5390812337   -0.4554416673   -0.4197620245
C        4.7108291519   -0.6248424431   -1.1941940015
C        2.3294741382   -1.3189268933   -0.6179731070
C        0.9406437081   -0.7750284517   -0.3057243751
O        2.4123600260   -2.4711546229   -1.0185709282
O        4.7846254956   -1.5399449784   -2.2039745101
H        4.6309738906    2.1060786248    1.5704843210
H        6.6827894976    1.7791406606    0.2191879588
H        2.6587921235    0.7057303406    1.1858788066
H        6.7286194014    0.0543171147   -1.5406950813
H        0.8585712392    0.2596014470   -0.6492620086
H        0.7583989041   -0.8184453498    0.7710674480
H        0.1829331836   -1.3739965103   -0.8189730769
H        5.6888866148   -1.5978302111   -2.5507692491
18   

C        4.7236058675    1.2900806755    0.8579608885
C        5.8289614510    1.1404001151    0.0240818287
C        3.5968832321    0.4855203685    0.6732469358
C        5.7968164577    0.1891055697   -0.9967349038
C        3.5526894013   -0.4797736068   -0.3443829146
C        4.6707239635   -0.6193331511   -1.1921516541
C        2.3474367075   -1.3659700565   -0.4960315700
C        0.9502040448   -0.7750503140   -0.3656898040
O        2.4567350047   -2.5681761037   -0.6810882383
O        4.6741180567   -1.5111446401   -2.2252949310
H        4.7408016678    2.0260546697    1.6540197114
H        6.7074982806    1.7604685949    0.1669971501
H        2.7546132669    0.6093641803    1.3450198252
H        6.6581160801    0.0867104278   -1.6450197330
H        0.8937597520    0.1644798570   -0.9218812847
H        0.7197860997   -0.5888416229    0.6860963660
H        0.2119787354   -1.4706907824   -0.7747285187
H        5.5609873190   -1.5831979143   -2.6129040758
18   

C        4.7769615603    1.2316690954    0.9525417780
C        5.8308165488    1.1371718476    0.0451624641
C        3.6523811039    0.4162228940    0.8024124374
C        5.7505626577    0.2283880737   -1.0123180838
C        3.5638512259   -0.4991184923   -0.2538192506
C        4.6258028174   -0.5893714803   -1.1706776093
C        2.3643005783   -1.4049516050   -0.3769963154
C        0.9631906925   -0.8087622714   -0.4041814958
O        2.4840695210   -2.6188476484   -0.3551165292
O        4.5692324701   -1.4487950812   -2.2294477842
H        4.8335867784    1.9317161584    1.7785917967
H        6.7073850704    1.7655607288    0.1612312010
H        2.8511565483    0.4895706059    1.5296132388
H        6.5719453081    0.1659716050   -1.7151803348
H        0.7939812580   -0.3288126562   -1.3717160008
H        0.8460014407   -0.0657397845    0.3877128045
H        0.2178471006   -1.5966132783   -0.2633222660
H        5.4326237474   -1.5044309849   -2.6700835585
18   

C        4.8386256678    1.1837746718    1.0318076887
C        5.8391247342    1.1234481158    0.0622275175
C        3.7104653072    0.3667376636    0.9204153735
C        5.7020284864    0.2466484475   -1.0169378403
C        3.5680907327   -0.5143591444   -0.1557819405
C        4.5729332125   -0.5718901154   -1.1338144569
C        2.3581691156   -1.4159331338   -0.2556184048
C        0.9906649314   -0.8060596044   -0.5242998547
O        2.4380934431   -2.6069932263   -0.0090216900
O        4.4535330491   -1.4055747116   -2.2079336251
H        4.9388034577    1.8590087806    1.8741959011
H        6.7180227291    1.7535688425    0.1470481634
H        2.9441391023    0.4108631509    1.6870672593
H        6.4818006179    0.2098621532   -1.7673927207
H        0.9020946666   -0.5743587958   -1.5889999203
H        0.8687357017    0.1144999360    0.0517289104
H        0.2026521609   -1.5106232799   -0.2442694919
H        5.2844427512   -1.4338335596   -2.7101020206
18   

C        4.9142367447    1.1369592986    1.1193396041
C        5.8512057722    1.1056343692    0.0868139310
C        3.7790521339    0.3245279131    1.0545416343
C        5.6429454041    0.2631490068   -1.0082885491
C        3.5701342767   -0.5278990587   -0.0328433599
C        4.5065762409   -0.5506182127   -1.0771576929
C        2.3326806703   -1.3957109205   -0.1114142168
C        1.0784386986   -0.8460174208   -0.7723223857
O        2.3184521221   -2.5209620057    0.3569035494
O        4.3134659064   -1.3497971644   -2.1669314009
H        5.0674404936    1.7880053918    1.9727147900
H        6.7346539444    1.7333022200    0.1344140088
H        3.0568450129    0.3492429855    1.8638800258
H        6.3722999065    0.2506649529   -1.8085871537
H        1.2780009611   -0.6567850196   -1.8303913118
H        0.7866777697    0.0903324477   -0.2900627375
H        0.2598388208   -1.5659189899   -0.6856057237
H        5.1000015767   -1.3407318166   -2.7372608137
18   

C        4.9701237129    1.0775133965    1.1664757547
C        5.8557073077    1.0796481895    0.0891757605
C        3.8243295764    0.2788919426    1.1243309099
C        5.5867962697    0.2831551676   -1.0270883849
C        3.5543983572   -0.5279086104    0.0145702431
C        4.4399972008   -0.5176556584   -1.0743652079
C        2.2910481144   -1.3567723676   -0.0306313630
C        1.1372970660   -0.9255125381   -0.9244367599
O        2.1822206524   -2.3746476185    0.6332516641
O        4.1962939444   -1.2792288773   -2.1808199761
H        5.1704861452    1.6926067003    2.0365915431
H        6.7469362997    1.6973332625    0.1191521382
H        3.1399477518    0.2782805554    1.9664977123
H        6.2787045906    0.2955175361   -1.8599785543
H        1.4640945306   -0.9007989187   -1.9669946761
H        0.8001087469    0.0722165671   -0.6322953445
H        0.3044958224   -1.6277973930   -0.8292829214
H        4.9509531742   -1.2383925814   -2.7917702863
18   

C        5.0275439649    1.0331200573    1.1988496449
C        5.8693798813    1.0699344849    0.0873067246
C        3.8679040532    0.2546136141    1.1683375815
C        5.5444628056    0.3277475701   -1.0519106712
C        3.5428392847   -0.4978245275    0.0325380724
C        4.3838305678   -0.4537564002   -1.0906133536
C        2.2553888184   -1.2841796603    0.0325155930
C        1.1591128750   -0.9687910456   -0.9756944180
O        2.0621335897   -2.1526924064    0.8700791312
O        4.0927670178   -1.1675916018   -2.2168891056
H        5.2720953870    1.6059341403    2.0863599553
H        6.7711741818    1.6724439074    0.1090976991
H        3.2161623525    0.2267323659    2.0359149826
H        6.2053687800    0.3665625757   -1.9088112622
H        1.4157840784   -1.3922625654   -1.9496848105
H        1.0486526295    0.1141997537   -1.0734569773
H        0.2091335718   -1.3948464773   -0.6416951525
H        4.8195657142   -1.0957421237   -2.8582404424
18   

C        5.0238362411    0.8999919812    1.2659797629
C        5.8416195589    0.9702151811    0.1386766509
C        3.8345499052    0.1689903836    1.2190311664
C        5.4646541063    0.3073210762   -1.0328080979
C        3.4536816969   -0.5034781805    0.0479737210
C        4.2747116511   -0.4279480391   -1.0907943189
C        2.1348636819   -1.2265628262    0.0548249545
C        1.1353179221   -1.0626733003   -1.0823054896
O        1.8274942007   -1.9241431991    1.0129604984
O        3.9434473783   -1.0671397405   -2.2503998934
H        5.3089641955    1.4111589461    2.1786759178
H        6.7657757797    1.5371826084    0.1735390712
H        3.2018534302    0.1189403427    2.0999340235
H        6.1098015555    0.3710745095   -1.9001600056
H        1.3051681511   -1.8365739625   -1.8352861301
H        1.2542596804   -0.0793807686   -1.5448700239
H        0.1156782194   -1.1523486166   -0.6980621840
H        4.6519627253   -0.9606617775   -2.9073072699
18   

C        5.0770859282    0.8538707661    1.2798327973
C        5.8709491031    0.9418143482    0.1379458731
C        3.8596999682    0.1714424311    1.2314795050
C        5.4437161938    0.3423580316   -1.0495379752
C        3.4201689122   -0.4326382186    0.0407205300
C        4.2257620308   -0.3456372268   -1.1122392196
C        2.0824425880   -1.1168180306    0.0737127527
C        1.1450246787   -1.1282065113   -1.1274519043
O        1.6868705618   -1.6163858788    1.1214236485
O        3.8643381249   -0.9313095658   -2.2907165609
H        5.4021335657    1.3140637477    2.2062138534
H        6.8168007798    1.4716840488    0.1745174266
H        3.2517159072    0.1132798091    2.1292577598
H        6.0745882744    0.4160722753   -1.9265513879
H        1.3817876246   -1.9792810927   -1.7712183117
H        1.2539718108   -0.2015530798   -1.6969044444
H        0.1083068030   -1.2131496288   -0.7905180088
H        4.5637841359   -0.8096123220   -2.9547052057
18   

C        5.0830098351    0.7998025401    1.3193374673
C        5.8609611938    0.8893163174    0.1682669781
C        3.8307047940    0.1846207058    1.2692036549
C        5.3831669643    0.3571648198   -1.0306945063
C        3.3329246644   -0.3496816010    0.0655402595
C        4.1299666436   -0.2644106754   -1.0982630733
C        1.9669680649   -0.9783938683    0.1183463243
C        1.1066663758   -1.2078726818   -1.1190034101
O        1.4736853313   -1.2520117208    1.2086311714
O        3.7350380599   -0.7845957511   -2.2960989763
H        5.4471614768    1.2072293768    2.2558396134
H        6.8338620387    1.3675767738    0.2066520775
H        3.2452422386    0.1312731493    2.1820301182
H        6.0042438535    0.4300994502   -1.9147457148
H        1.4613431801   -2.0904134910   -1.6576421712
H        1.1513421254   -0.3346737904   -1.7748359325
H        0.0656041776   -1.3687657973   -0.8255542513
H        4.4289762775   -0.6537209480   -2.9640896286
18   

C        5.1368197614    0.7417162905    1.3248051897
C        5.9095594510    0.8403127840    0.1720257216
C        3.8570325086    0.1876727448    1.2623507863
C        5.3966425038    0.3825852016   -1.0421945057
C        3.3234184494   -0.2794076574    0.0452144916
C        4.1148238359   -0.1761445661   -1.1239601870
C        1.9337491216   -0.8573044862    0.0966843421
C        1.2005330519   -1.4089625347   -1.1209809581
O        1.3396025054   -0.8958518344    1.1707119722
O        3.6851390517   -0.6003469020   -2.3470148887
H        5.5263533553    1.0945459955    2.2731866305
H        6.9041073015    1.2707883895    0.2201115403
H        3.2829163667    0.1269120851    2.1818019819
H        6.0121750673    0.4673545177   -1.9290721593
H        1.7624868703   -2.2430101768   -1.5489830286
H        1.0763610860   -0.6226347475   -1.8699042113
H        0.2104203725   -1.7704838439   -0.8294344789
H        4.3713632778   -0.4426378545   -3.0171390279
18   

C        5.1399416785    0.6652487398    1.3459473570
C        5.9096646888    0.7742046109    0.1910281228
C        3.8354123420    0.1734434769    1.2713793555
C        5.3676156522    0.3938531130   -1.0379943022
C        3.2784060294   -0.2209447857    0.0400085805
C        4.0604104208   -0.1001398798   -1.1308297998
C        1.8700857630   -0.7495810726    0.0729884152
C        1.2736312255   -1.6023573306   -1.0409365930
O        1.1817370469   -0.5623994570    1.0720154821
O        3.5850169189   -0.4302227222   -2.3663127809
H        5.5512227920    0.9613323766    2.3044991996
H        6.9234471449    1.1558852306    0.2485399055
H        3.2594732363    0.0975902207    2.1886606423
H        5.9783430965    0.4912404142   -1.9268869864
H        2.0021433464   -2.3446659237   -1.3768481293
H        0.9848881297   -0.9648490966   -1.8805890929
H        0.3865912571   -2.1271245030   -0.6754382742
H        4.2577058392   -0.2491425303   -3.0442431234
18   

C        4.6333768204    1.9329424097    0.1016785864
C        5.7639059419    1.1271494636   -0.0185699510
C        3.3673870202    1.3994544985   -0.1487914753
C        5.6227471570   -0.2114805543   -0.3929189560
C        3.2150583195    0.0531707736   -0.5233993714
C        4.3596343163   -0.7594388139   -0.6478090373
C        1.8128965991   -0.4423375250   -0.7404684171
C        1.3901682931   -1.8645636711   -0.3936947796
O        0.9522594038    0.3377799710   -1.1334834336
O        4.2780505490   -2.0667810147   -1.0307562184
H        4.7339946926    2.9734951970    0.3893265111
H        6.7477676286    1.5406581877    0.1757531564
H        2.4961276552    2.0397654179   -0.0490805127
H        6.5116931948   -0.8227482786   -0.4862603979
H        1.9515963319   -2.2216954997    0.4735350553
H        1.5804913381   -2.5231805388   -1.2450588265
H        0.3233530112   -1.8887809698   -0.1552782591
H        5.1679976700   -2.4495710108   -1.1106421350
18   

C        4.6038665336    1.9101859949    0.1632564356
C        5.7455799030    1.1228543322    0.0179765684
C        3.3485204632    1.3794519201   -0.1423504704
C        5.6254972839   -0.1946666150   -0.4332678427
C        3.2220406354    0.0596335647   -0.6014095864
C        4.3721697825   -0.7365977909   -0.7421822854
C        1.8346911296   -0.4603524828   -0.8603795496
C        1.3845613040   -1.8153209112   -0.3307931377
O        1.0270533710    0.2333182828   -1.4650992017
O        4.2955816731   -2.0249552144   -1.1863187742
H        4.6882542312    2.9331521587    0.5125741747
H        6.7213270070    1.5335920173    0.2545022479
H        2.4634031309    1.9974366682   -0.0263277405
H        6.5209616301   -0.7939294699   -0.5410025455
H        1.9340127123   -2.0605325069    0.5818689151
H        1.5752747251   -2.5855254138   -1.0825674941
H        0.3151879775   -1.7905125111   -0.1045748591
H        5.1867919855   -2.4005922449   -1.2837863413
18   

C        4.5677682022    1.8358735799    0.2279249669
C        5.7211097905    1.0771153494    0.0291870987
C        3.3209929032    1.3122003974   -0.1228594898
C        5.6201360190   -0.2049569989   -0.5187120682
C        3.2153089642    0.0315659743   -0.6802449048
C        4.3744688197   -0.7369887658   -0.8717093614
C        1.8424448056   -0.5069535345   -0.9982155475
C        1.3227358664   -1.7549965477   -0.2980263706
O        1.1161397421    0.0785887642   -1.7873617398
O        4.3077429892   -1.9915239974   -1.4050438937
H        4.6371519614    2.8311649638    0.6523984651
H        6.6905323755    1.4820475647    0.2993328468
H        2.4257928329    1.9064027499    0.0313099415
H        6.5229384819   -0.7844248657   -0.6661802303
H        1.5658833714   -1.7084860994    0.7665510447
H        1.7834343449   -2.6454578095   -0.7323371251
H        0.2375702062   -1.8244695923   -0.4126312808
H        5.2019927021   -2.3428406296   -1.5520979331
18   

C        4.6407452432    1.8267864336    0.3526210465
C        5.8060269438    1.0973516414    0.1184313701
C        3.4030623344    1.3038490689   -0.0309010369
C        5.7247281330   -0.1547729748   -0.4966322276
C        3.3155562498    0.0559228380   -0.6556509592
C        4.4872822485   -0.6831422909   -0.8816550919
C        1.9654372511   -0.5117718287   -1.0299057302
C        1.3704529133   -1.6467048871   -0.2089597312
O        1.3447822698   -0.0803508760   -1.9876716388
O        4.4351908649   -1.9127835482   -1.4723312704
H        4.6941747791    2.7990209377    0.8295825640
H        6.7687041210    1.5009334855    0.4135538643
H        2.4994924037    1.8767641957    0.1506254816
H        6.6351819896   -0.7148090989   -0.6699237629
H        1.2538516847   -1.3262845885    0.8294240412
H        2.0321275006   -2.5158530467   -0.2421386227
H        0.3926799822   -1.9285705779   -0.6093692545
H        5.3327485241   -2.2407704518   -1.6491177284
18   

C        4.6248892602    1.7745559054    0.4295401434
C        5.8108742145    1.0983048743    0.1447063364
C        3.4005361016    1.2315423130    0.0308123680
C        5.7631400309   -0.1218561559   -0.5345105476
C        3.3466797739    0.0168816565   -0.6579505931
C        4.5387636023   -0.6692658204   -0.9339329110
C        2.0198763456   -0.5797356977   -1.0753633099
C        1.2887905626   -1.5108246539   -0.1210727885
O        1.5206570610   -0.3175839679   -2.1559872953
O        4.5151575321   -1.8730340076   -1.5773386882
H        4.6524069085    2.7216789016    0.9565907093
H        6.7633749339    1.5175502192    0.4507925939
H        2.4818685293    1.7654946949    0.2502824320
H        6.6885636010   -0.6432195994   -0.7451354416
H        1.1277896113   -1.0074186850    0.8355406793
H        1.8905383382   -2.4085651227    0.0435628079
H        0.3221835221   -1.8001811796   -0.5427707081
H        5.4178808127   -2.1576899738   -1.7965588827
18   

C        4.6013855880    1.6757170380    0.5019553663
C        5.8138783835    1.0740237579    0.1664643722
C        3.3982152900    1.0905254321    0.0986739630
C        5.8143188558   -0.1140582419   -0.5688151135
C        3.3916856427   -0.0971020480   -0.6391016682
C        4.6117914285   -0.7049139213   -0.9729663754
C        2.0871838922   -0.7101778706   -1.0964170613
C        1.1356212528   -1.2997717960   -0.0663161780
O        1.7301550443   -0.6361832941   -2.2595425139
O        4.6386702285   -1.8760921188   -1.6734218636
H        4.5922985730    2.5995605911    1.0694278330
H        6.7500530112    1.5271054305    0.4746888880
H        2.4605692342    1.5735497402    0.3525743658
H        6.7604453712   -0.5765525778   -0.8208542023
H        1.0916666827   -0.6580179464    0.8170439174
H        1.4931209637   -2.2895005484    0.2299051318
H        0.1322833664   -1.3936074050   -0.4909327251
H        5.5465804981   -2.0886075106   -1.9453014923
18   

C        4.5873769385    1.5891786688    0.5710030632
C        5.8160857264    1.0573663817    0.1832784590
C        3.4013773660    0.9691332496    0.1695989583
C        5.8506140503   -0.0972990008   -0.6016723031
C        3.4262035409   -0.1879580558   -0.6189376908
C        4.6666469788   -0.7254586046   -1.0048188268
C        2.1378869441   -0.8202344679   -1.0829247623
C        1.0683741493   -1.1964382303   -0.0661121845
O        1.8879807669   -0.9476320896   -2.2702253857
O        4.7369425565   -1.8663153205   -1.7506788674
H        4.5521594689    2.4877255766    1.1768116746
H        6.7387814603    1.5386784724    0.4893629365
H        2.4546726515    1.4086710081    0.4640783202
H        6.8099936878   -0.5059997075   -0.8934520118
H        0.9027597338   -0.3783774042    0.6383452790
H        1.3913756915   -2.0829376689    0.4860612031
H        0.1274389003   -1.4194578306   -0.5769824993
H        5.6446561253   -2.0152496531   -2.0614424253
18   

C        4.5896341867    1.4929909490    0.6481591838
C        5.8229804826    1.0375989406    0.1887728886
C        3.4169433033    0.8414435645    0.2592721180
C        5.8756164387   -0.0743791062   -0.6531172222
C        3.4536729761   -0.2734179294   -0.5920953886
C        4.7060734544   -0.7363169487   -1.0453525128
C        2.1758319672   -0.9312762710   -1.0345160578
C        1.0531050813   -1.1592911398   -0.0315611531
O        1.9925979962   -1.2542376615   -2.1979606306
O        4.8118148753   -1.8395189564   -1.8419020005
H        4.5398555309    2.3567566406    1.3016831268
H        6.7356601035    1.5434715028    0.4851600773
H        2.4673309970    1.2240329096    0.6168935263
H        6.8402145336   -0.4256928374   -0.9976813993
H        0.5363878253   -0.2181185042    0.1714443768
H        1.4657306073   -1.5555587295    0.9000846265
H        0.3356778003   -1.8805305750   -0.4332036424
H        5.7172440692   -1.9336584674   -2.1785102401
18   

C        4.5826632249    1.4237068510    0.7108281821
C        5.8176382557    1.0461817658    0.1930187864
C        3.4274337081    0.7374722381    0.3308361422
C        5.8899833925   -0.0242299413   -0.6980374236
C        3.4775569990   -0.3374059328   -0.5740333023
C        4.7395327237   -0.7229813875   -1.0840153650
C        2.2133872515   -1.0303569648   -0.9864765866
C        1.0264262206   -1.0897590072   -0.0326453173
O        2.0871653499   -1.5527736810   -2.0846796626
O        4.8844434288   -1.7840945251   -1.9299147936
H        4.5174260621    2.2542804425    1.4048018744
H        6.7168346572    1.5792298354    0.4829621969
H        2.4800889369    1.0673826484    0.7423461700
H        6.8577378647   -0.3155377431   -1.0868879451
H        0.4810624799   -0.1429478652   -0.0592288559
H        1.3745466257   -1.2829995492    0.9855320094
H        0.3512051938   -1.8974034368   -0.3294579626
H        5.7934630523   -1.8355863227   -2.2650853469
18   

C        4.6207900540    1.3814590461    0.7150208544
C        5.8377374135    1.0479809946    0.1324740870
C        3.4647988220    0.6795402156    0.3686603171
C        5.8910279135    0.0068741980   -0.7919491263
C        3.4892121383   -0.3712249734   -0.5686232400
C        4.7405654594   -0.7083133463   -1.1476939476
C        2.2250232610   -1.0910941863   -0.9251415909
C        0.9827396023   -0.9537664245   -0.0512910046
O        2.1364666913   -1.8138890230   -1.9086446949
O        4.8848073259   -1.7305617016   -2.0401899688
H        4.5697223174    2.1894923979    1.4362838073
H        6.7377644978    1.5924495654    0.3975958597
H        2.5379597852    0.9820619012    0.8421447630
H        6.8462522514   -0.2483906668   -1.2335670940
H        0.5472085245    0.0407827709   -0.1775931487
H        1.2438556397   -1.1115399215    0.9984649064
H        0.2392608530   -1.7023748673   -0.3401062363
H        5.7951709356   -1.7736718678   -2.3721084319
18   

C        4.6296201161    1.3631536811    0.7326776684
C        5.8322206712    1.0850063613    0.0954469013
C        3.4864214599    0.6250096212    0.4213919426
C        5.8829987882    0.0661348324   -0.8527034837
C        3.5073892624   -0.4113221858   -0.5332159435
C        4.7452473969   -0.6839004942   -1.1766033348
C        2.2589105601   -1.1798849009   -0.8387197265
C        0.9501179817   -0.8554549386   -0.1252594561
O        2.2285397163   -2.0876898648   -1.6594186106
O        4.8890443035   -1.6621162582   -2.1171690619
H        4.5801025600    2.1545148010    1.4723126471
H        6.7226535198    1.6565268780    0.3347956059
H        2.5753353085    0.8835827821    0.9479434305
H        6.8262915167   -0.1410744720   -1.3425142323
H        0.6576814292    0.1772123880   -0.3326085827
H        1.0667094187   -0.9982212609    0.9522097677
H        0.1566413707   -1.5196081873   -0.4802675836
H        5.8023436433   -1.6989123769   -2.4413938165
