19   
Generated by ForceBalance from scan.xyz: Frame 1 of 24
C        2.0915221964   -0.7489788692   -0.1002166727
C        2.7647993800   -1.9053414133    1.9519556997
C        1.0083855251   -0.1826361227    0.5743567141
C        1.6915643671   -1.3300257829    2.6272891593
C        2.9461373257   -1.5976640569    0.6014958634
C        0.8278950299   -0.4838763849    1.9249490351
N       -1.5006204300   -1.2016003512    2.9567942255
N        4.0768911426   -2.2199442890   -0.1207396173
O        4.6434135606   -3.1705230160    0.4243487879
O        4.3672467207   -1.7606452335   -1.2282031162
O       -1.2033699138    1.2186104442    1.9055286784
O       -0.1350322912    0.6312052784    4.1537678658
S       -0.5451473131    0.2699455122    2.8045322752
Cl      -2.7534305995   -1.0558511727    4.1894032641
H        2.2806116644   -0.5373735548   -1.1460523505
H        3.4531080215   -2.5785321293    2.4495097437
H        0.3218226915    0.4894751675    0.0699227076
H        1.5230056014   -1.5316611326    3.6799625500
H       -2.0055699501   -1.3116188319    2.0701291737
19   
Generated by ForceBalance from scan.xyz: Frame 2 of 24
C        2.0885846026   -0.7500794886   -0.1135277868
C        2.7586081096   -1.8793950924    1.9547778959
C        0.9944136225   -0.1900700859    0.5487072350
C        1.6814635159   -1.3007842662    2.6209655100
C        2.9481955914   -1.5787628282    0.6043132547
C        0.8128383938   -0.4722192770    1.9033876283
N       -1.5074564338   -1.1942008692    2.9529497758
N        4.0762684601   -2.2102200848   -0.1085649373
O        4.4631476216   -3.3057839858    0.3065471031
O        4.5319331279   -1.6134167725   -1.0872979287
O       -1.2367985011    1.2066554891    1.8493200478
O       -0.1618229087    0.6776899535    4.1088072892
S       -0.5681951147    0.2838696831    2.7675547305
Cl      -2.7654084786   -1.0318156306    4.1784625772
H        2.2822896423   -0.5458041541   -1.1604550455
H        3.4444765942   -2.5488443947    2.4614447647
H        0.3006470494    0.4649375316    0.0317676807
H        1.5111611543   -1.4894324376    3.6757825809
H       -2.0085767920   -1.3318349120    2.0680025119
19   
Generated by ForceBalance from scan.xyz: Frame 3 of 24
C        2.0866792955   -0.7591666165   -0.1193985452
C        2.7700402696   -1.8662596915    1.9578612568
C        0.9896560619   -0.2025937105    0.5414626484
C        1.6927069396   -1.2862055986    2.6223543986
C        2.9545806675   -1.5713155668    0.6060185540
C        0.8150373888   -0.4713209832    1.8997421068
N       -1.4873730501   -1.2075457395    2.9751073217
N        4.0701245510   -2.2173505543   -0.1099997055
O        4.2752754247   -3.4091907544    0.1332305599
O        4.6842580291   -1.5327957781   -0.9317499585
O       -1.2562168681    1.1792572441    1.8308896543
O       -0.1620769242    0.7015415855    4.0923629340
S       -0.5699409490    0.2803255678    2.7598019329
Cl      -2.7529100058   -1.0354999937    4.1917797927
H        2.2751017200   -0.5614214268   -1.1690535844
H        3.4574296830   -2.5318282744    2.4686733331
H        0.2872333015    0.4393146331    0.0197968661
H        1.5263104123   -1.4668353679    3.6791989053
H       -1.9830247609   -1.3725511927    2.0917140072
19   
Generated by ForceBalance from scan.xyz: Frame 4 of 24
C        2.0810539059   -0.7767560208   -0.1286975980
C        2.7947202488   -1.8546843680    1.9537547269
C        0.9899916078   -0.2172150827    0.5396772422
C        1.7220864974   -1.2724547332    2.6245193781
C        2.9614212434   -1.5736740928    0.5974200152
C        0.8324546253   -0.4696248915    1.9032167412
N       -1.4512632975   -1.2003343905    3.0187047065
N        4.0728935755   -2.2203062672   -0.1247575789
O        4.1146458260   -3.4521361773   -0.0940507711
O        4.8444704035   -1.4835405862   -0.7422055835
O       -1.2449243103    1.1728112756    1.8395677549
O       -0.1205050755    0.7289033067    4.0925330274
S       -0.5431111141    0.2882654718    2.7708114022
Cl      -2.7174490718   -1.0080416712    4.2321850708
H        2.2534169779   -0.5889090921   -1.1833916617
H        3.4909237454   -2.5098493575    2.4670291802
H        0.2788418666    0.4158043203    0.0189299101
H        1.5690138215   -1.4421890550    3.6851968673
H       -1.9468285726   -1.3870669941    2.1395473693
19   
Generated by ForceBalance from scan.xyz: Frame 5 of 24
C        2.0427836982   -0.8117133264   -0.1261480602
C        2.7939390936   -1.8463760668    1.9642544135
C        0.9550040862   -0.2499065953    0.5458612100
C        1.7183167728   -1.2704960321    2.6365117936
C        2.9373685612   -1.5906081484    0.6011069818
C        0.8126980349   -0.4874945426    1.9137935236
N       -1.4636578135   -1.2322727307    3.0321287893
N        4.0598171568   -2.2234394977   -0.1196856290
O        3.9724259459   -3.4346852269   -0.3274702484
O        4.9779266362   -1.4871761592   -0.4834610550
O       -1.2726194236    1.1442648064    1.8561418485
O       -0.1421283642    0.7027369011    4.1064757036
S       -0.5641598384    0.2619598556    2.7845556529
Cl      -2.7420025618   -1.0411149056    4.2335039545
H        2.1973689578   -0.6390039715   -1.1864763032
H        3.5076169302   -2.4773641075    2.4844144226
H        0.2351904898    0.3727502521    0.0244143112
H        1.5780138046   -1.4272885419    3.7009670933
H       -1.9507905472   -1.4264417793    2.1498323423
19   
Generated by ForceBalance from scan.xyz: Frame 6 of 24
C        2.0259767404   -0.8352100976   -0.1362899703
C        2.8029288689   -1.8314640601    1.9630117048
C        0.9440855507   -0.2643446817    0.5377802909
C        1.7242348714   -1.2595082115    2.6339765701
C        2.9254924164   -1.6061271794    0.5927012645
C        0.8101332833   -0.4889307555    1.9087143398
N       -1.4506646925   -1.2291165868    3.0595791159
N        4.0680249249   -2.2152998665   -0.1189364361
O        3.8936174463   -3.3404580123   -0.5889565276
O        5.1024526843   -1.5506801244   -0.1846296172
O       -1.2852018874    1.1298917453    1.8447176738
O       -0.1328315657    0.7303984117    4.0914812405
S       -0.5627227154    0.2663776474    2.7800587438
Cl      -2.7240445540   -1.0242120609    4.2641009157
H        2.1666030198   -0.6805074824   -1.2014526420
H        3.5334882509   -2.4366700152    2.4905555111
H        0.2218937482    0.3546710468    0.0152914426
H        1.5930939309   -1.4032707907    3.7014498086
H       -1.9410623901   -1.4424263009    2.1835175276
19   
Generated by ForceBalance from scan.xyz: Frame 7 of 24
C        2.0073104768   -0.8710118109   -0.1458104307
C        2.8100184913   -1.8149454031    1.9680084110
C        0.9302825825   -0.2884942086    0.5260451294
C        1.7265059985   -1.2461804495    2.6335165354
C        2.9137134391   -1.6274868798    0.5900866274
C        0.8034427080   -0.4933809171    1.9007162528
N       -1.4595008688   -1.2231312668    3.0553778474
N        4.0717581628   -2.2168594728   -0.1108553212
O        3.8519170234   -3.1997442811   -0.8208789261
O        5.1693920507   -1.6963905989    0.0917791042
O       -1.2899143568    1.1274277649    1.8253499702
O       -0.1388538011    0.7412794761    4.0752780894
S       -0.5691862314    0.2692428604    2.7669027051
Cl      -2.7279035720   -1.0113658817    4.2638299930
H        2.1371232624   -0.7415303748   -1.2156087459
H        3.5587113985   -2.3900749061    2.5034242174
H        0.2059743048    0.3240456953   -0.0010741288
H        1.6026178574   -1.3715126670    3.7041729852
H       -1.9535233019   -1.4386843845    2.1819140472
19   
Generated by ForceBalance from scan.xyz: Frame 8 of 24
C        1.9782549288   -0.8920644564   -0.1501566143
C        2.8161854989   -1.7989542192    1.9672061681
C        0.9047414841   -0.3095834466    0.5267739120
C        1.7309257218   -1.2387516987    2.6365671508
C        2.8984213086   -1.6345140752    0.5842748246
C        0.7931159194   -0.5035407451    1.9044371927
N       -1.4616657955   -1.2439457880    3.0703744960
N        4.0605908665   -2.2056460005   -0.1213418154
O        3.8243730642   -2.9959410413   -1.0381119849
O        5.1773437554   -1.8825104050    0.2871671755
O       -1.3104974847    1.1048930957    1.8374549311
O       -0.1446922691    0.7288252214    4.0818932359
S       -0.5802545664    0.2526558973    2.7768331401
Cl      -2.7127293792   -1.0436483193    4.2983667246
H        2.0958827736   -0.7790460766   -1.2229582948
H        3.5835126227   -2.3507270507    2.5001035841
H        0.1714939623    0.2939200773    0.0016345854
H        1.6185005442   -1.3528855837    3.7097288304
H       -1.9676897459   -1.4562300734    2.2030133502
19   
Generated by ForceBalance from scan.xyz: Frame 9 of 24
C        1.9756734235   -0.9182412551   -0.1562453831
C        2.8126223226   -1.7932172897    1.9750109944
C        0.8988435948   -0.3302795856    0.5102224937
C        1.7230799108   -1.2297344115    2.6340713934
C        2.8989844006   -1.6465387494    0.5896409545
C        0.7849183538   -0.5070712023    1.8899211214
N       -1.4684950046   -1.2323052645    3.0754203892
N        4.0649247943   -2.2197874197   -0.1071003817
O        3.8518456374   -2.7896104098   -1.1806341838
O        5.1590918585   -2.1213564231    0.4527056053
O       -1.3273270437    1.0893197235    1.7953484495
O       -0.1518146211    0.7637790979    4.0438952580
S       -0.5910391037    0.2601014336    2.7505412349
Cl      -2.6736862821   -1.0321647339    4.3474860080
H        2.0975924969   -0.8213939688   -1.2297143293
H        3.5819409247   -2.3349378272    2.5144041480
H        0.1647787750    0.2639997800   -0.0241233432
H        1.6074350774   -1.3316786672    3.7081008650
H       -2.0048063160   -1.4429096247    2.2261703686
19   
Generated by ForceBalance from scan.xyz: Frame 10 of 24
C        1.9745338196   -0.9318084485   -0.1648895053
C        2.8234895861   -1.7737323893    1.9734996384
C        0.8950155390   -0.3434950456    0.4966543002
C        1.7346570230   -1.2055864299    2.6296885007
C        2.9089064270   -1.6421703562    0.5859560358
C        0.7885375646   -0.5003050129    1.8793336920
N       -1.4537970711   -1.2281178446    3.0825114880
N        4.0699853563   -2.2308049113   -0.1101100177
O        3.9091408165   -2.5718063637   -1.2851735764
O        5.1098274060   -2.3669854743    0.5390911946
O       -1.3374994660    1.0782100228    1.7718035656
O       -0.1508187312    0.7920259841    4.0196706674
S       -0.5911068542    0.2676618701    2.7349879714
Cl      -2.6582665776   -1.0214564881    4.3540775690
H        2.0939658088   -0.8484808936   -1.2392225393
H        3.5951854259   -2.3090003753    2.5149596886
H        0.1534541597    0.2359274270   -0.0436352263
H        1.6237454132   -1.2937175572    3.7054190065
H       -1.9895481322   -1.4561158982    2.2373979170
19   
Generated by ForceBalance from scan.xyz: Frame 11 of 24
C        1.9616556147   -0.9417232357   -0.1624906772
C        2.8222019133   -1.7650729633    1.9782440436
C        0.8775070988   -0.3611635777    0.4981203110
C        1.7342422223   -1.1956384314    2.6347420247
C        2.9075855271   -1.6359411280    0.5899234504
C        0.7790788009   -0.5049069372    1.8827179958
N       -1.4483206447   -1.2390375390    3.1117355842
N        4.0655088417   -2.2349943263   -0.1079026088
O        3.9968535871   -2.3380854408   -1.3354388720
O        5.0169222555   -2.6052021368    0.5843809563
O       -1.3646756525    1.0493875508    1.7692628651
O       -0.1582536575    0.8063319191    4.0120530004
S       -0.6029117082    0.2601461279    2.7380274107
Cl      -2.6362191588   -1.0308226088    4.3983042035
H        2.0791757773   -0.8624424932   -1.2368935678
H        3.5947658256   -2.2990927213    2.5189055127
H        0.1262634737    0.2030543802   -0.0448386965
H        1.6287577566   -1.2758209021    3.7116118326
H       -1.9938355507   -1.4793078793    2.2763591875
19   
Generated by ForceBalance from scan.xyz: Frame 12 of 24
C        1.9530453704   -0.9429477937   -0.1515872020
C        2.8115280375   -1.7426082566    1.9989085960
C        0.8597215127   -0.3694911938    0.5001203301
C        1.7212636060   -1.1690238711    2.6479821814
C        2.9045720493   -1.6191850082    0.6104143215
C        0.7613837094   -0.4956479484    1.8864554724
N       -1.4508239695   -1.2317973869    3.1410679129
N        4.0629856199   -2.2296689694   -0.0796622844
O        4.1251789831   -2.1060849252   -1.3054815640
O        4.8911089738   -2.8227274284    0.6160900835
O       -1.4040754731    1.0264893582    1.7478690910
O       -0.1856180140    0.8509797680    3.9899551510
S       -0.6277029363    0.2696215765    2.7306449629
Cl      -2.6388938098   -1.0101372439    4.4253948485
H        2.0751931806   -0.8693701346   -1.2257204241
H        3.5809665140   -2.2749510633    2.5453356126
H        0.1012802232    0.1763154474   -0.0515875819
H        1.6152652830   -1.2370633278    3.7256183435
H       -1.9949331855   -1.4983975374    2.3128103862
19   
Generated by ForceBalance from scan.xyz: Frame 13 of 24
C        1.9471962765   -0.9554875846   -0.1510192311
C        2.8247032377   -1.7283889955    2.0014198954
C        0.8518895238   -0.3868232169    0.5015670630
C        1.7387671566   -1.1492340801    2.6528752324
C        2.9107635842   -1.6128392287    0.6119126439
C        0.7670180263   -0.4939311447    1.8904005081
N       -1.4319876019   -1.2380074642    3.1634395744
N        4.0570820790   -2.2382956446   -0.0821887765
O        4.2571598651   -1.9121937368   -1.2550417724
O        4.7446053265   -3.0350658328    0.5614159392
O       -1.4116264426    1.0083866523    1.7490791759
O       -0.1810572438    0.8637618955    3.9867166354
S       -0.6239940247    0.2672323000    2.7348916189
Cl      -2.6149394752   -1.0155267529    4.4521107780
H        2.0633545174   -0.8891401344   -1.2264577317
H        3.5959664595   -2.2589502643    2.5473184758
H        0.0818199084    0.1413221419   -0.0512130304
H        1.6425337209   -1.2033655322    3.7322421896
H       -1.9780121424   -1.5172525320    2.3406016563
19   
Generated by ForceBalance from scan.xyz: Frame 14 of 24
C        1.9424797007   -0.9629368939   -0.1552694696
C        2.8268936283   -1.7115143612    2.0037000238
C        0.8407253496   -0.4013479297    0.4927450421
C        1.7402438091   -1.1296246326    2.6514213768
C        2.9131970047   -1.6003992458    0.6144311560
C        0.7611871678   -0.4916566520    1.8831832959
N       -1.4255867457   -1.2378973795    3.1770740050
N        4.0545988895   -2.2331388359   -0.0753471688
O        4.4174807260   -1.7315814939   -1.1425609306
O        4.5820509682   -3.2018840877    0.4770334595
O       -1.4321848156    0.9869026323    1.7282325866
O       -0.1917125084    0.8868960535    3.9630841991
S       -0.6335949518    0.2679550712    2.7217953031
Cl      -2.6054988570   -1.0059896233    4.4669798421
H        2.0584473745   -0.9021837230   -1.2315213999
H        3.5981106317   -2.2390218607    2.5533959255
H        0.0624416424    0.1098761003   -0.0644399153
H        1.6466977194   -1.1720488162    3.7315578526
H       -1.9721254293   -1.5354888498    2.3610814412
19   
Generated by ForceBalance from scan.xyz: Frame 15 of 24
C        1.9564788296   -0.9648227008   -0.1677144744
C        2.8342922954   -1.6877143822    2.0034236294
C        0.8477052789   -0.4041668449    0.4694635349
C        1.7435631512   -1.1013778787    2.6401273320
C        2.9272692393   -1.5852860036    0.6144543339
C        0.7638478539   -0.4777643006    1.8606401969
N       -1.4069991178   -1.2216432158    3.1780706358
N        4.0658916431   -2.2316022276   -0.0636409533
O        4.6063309214   -1.6023704619   -0.9766962209
O        4.4166297935   -3.3364569738    0.3575430016
O       -1.4472762557    0.9697371200    1.6764495480
O       -0.2023028272    0.9377481957    3.9100842915
S       -0.6376291485    0.2838105688    2.6843885482
Cl      -2.6154310647   -0.9666785510    4.4374420392
H        2.0760042026   -0.9128460839   -1.2445734448
H        3.6016510058   -2.2111115152    2.5632798723
H        0.0669019801    0.0932012832   -0.0966980743
H        1.6452025986   -1.1328930943    3.7202201613
H       -1.9328772708   -1.5586408939    2.3637376451
19   
Generated by ForceBalance from scan.xyz: Frame 16 of 24
C        1.9507062335   -0.9839855917   -0.1717305203
C        2.8483308002   -1.6678424946    2.0049222798
C        0.8439015176   -0.4187460576    0.4652636317
C        1.7581726804   -1.0783198853    2.6399955510
C        2.9293646003   -1.5849284070    0.6145672709
C        0.7702042063   -0.4711092118    1.8579443365
N       -1.3876586193   -1.2051698988    3.1990109899
N        4.0687244016   -2.2348919252   -0.0595112825
O        4.7736196252   -1.5229384224   -0.7778571323
O        4.2523215521   -3.4297855189    0.1815266820
O       -1.4462218600    0.9669006942    1.6681070990
O       -0.1882363236    0.9684977874    3.8940895621
S       -0.6278406229    0.2965939981    2.6796066244
Cl      -2.6099213320   -0.9323628090    4.4417422320
H        2.0594931975   -0.9470687860   -1.2507783679
H        3.6219256288   -2.1774900375    2.5697690270
H        0.0570573723    0.0667694636   -0.1028879582
H        1.6670706900   -1.0946766828    3.7210812222
H       -1.9037826007   -1.5642187846    2.3878001065
19   
Generated by ForceBalance from scan.xyz: Frame 17 of 24
C        1.9343000002   -0.9971824670   -0.1695009865
C        2.8594173071   -1.6350738598    2.0079192261
C        0.8293434932   -0.4293689631    0.4689411472
C        1.7657904321   -1.0517925492    2.6434493994
C        2.9233519536   -1.5803463057    0.6159690184
C        0.7650817465   -0.4646567609    1.8625739579
N       -1.3781330152   -1.2072524537    3.2196823105
N        4.0721867750   -2.2187203131   -0.0566907373
O        4.9225114589   -1.4709289859   -0.5416391184
O        4.1021015741   -3.4503278049   -0.0544144189
O       -1.4638553711    0.9537931016    1.6737250061
O       -0.1956536811    0.9814166543    3.8934148085
S       -0.6342878191    0.2973636649    2.6853004366
Cl      -2.6122041169   -0.9321226420    4.4506355384
H        2.0287580047   -0.9771364750   -1.2505983260
H        3.6469666548   -2.1188746200    2.5768591574
H        0.0359918784    0.0447687393   -0.0998112226
H        1.6842385624   -1.0543772666    3.7254173462
H       -1.8847775633   -1.5831751801    2.4100993607
19   
Generated by ForceBalance from scan.xyz: Frame 18 of 24
C        1.9199570121   -1.0370442274   -0.1763300369
C        2.8705023746   -1.6119871532    2.0058190390
C        0.8201761684   -0.4549708374    0.4580834618
C        1.7737489472   -1.0295113875    2.6375420536
C        2.9157174218   -1.6037207999    0.6125424598
C        0.7639574570   -0.4644065978    1.8525899595
N       -1.3796015131   -1.1925657282    3.2164909445
N        4.0783156130   -2.2229705623   -0.0568995770
O        5.0443359949   -1.4939820210   -0.2837762463
O        3.9881441909   -3.4201483855   -0.3326425778
O       -1.4628332128    0.9558496528    1.6530689523
O       -0.1937208569    0.9996167024    3.8720362800
S       -0.6334889894    0.3065169929    2.6694596184
Cl      -2.6163324278   -0.9044425203    4.4419916331
H        2.0011338593   -1.0457137289   -1.2587214999
H        3.6741038357   -2.0610248527    2.5810134615
H        0.0245137594    0.0103576290   -0.1147469471
H        1.7013053144   -1.0084873917    3.7199806346
H       -1.8850212599   -1.5755347109    2.4094273006
19   
Generated by ForceBalance from scan.xyz: Frame 19 of 24
C        1.9015278304   -1.0810452579   -0.1692944434
C        2.8788563437   -1.5972183047    2.0174328020
C        0.8069074679   -0.4876345364    0.4630517935
C        1.7782826818   -1.0192754004    2.6463905175
C        2.9045831779   -1.6296857584    0.6237133386
C        0.7595082903   -0.4753816123    1.8579573648
N       -1.3845869955   -1.1963707436    3.2254281302
N        4.0786978270   -2.2239417608   -0.0456856126
O        5.1242519667   -1.5737216923   -0.0164529279
O        3.9116922381   -3.3090049327   -0.6052718800
O       -1.4681592418    0.9420653063    1.6489908762
O       -0.1999444070    1.0005663370    3.8683034866
S       -0.6389220549    0.2998267933    2.6699354543
Cl      -2.6175978170   -0.9025521625    4.4532328819
H        1.9720612612   -1.1178546301   -1.2517551122
H        3.6995196937   -2.0131120241    2.5932859651
H        0.0078215218   -0.0308609835   -0.1118575031
H        1.7132271642   -0.9780171366    3.7287237340
H       -1.8924970915   -1.5822247464    2.4213123726
19   
Generated by ForceBalance from scan.xyz: Frame 20 of 24
C        1.8971965061   -1.1028315756   -0.1789803775
C        2.8907209207   -1.5817092592    2.0093637100
C        0.8047813512   -0.5032961489    0.4512589571
C        1.7883759604   -1.0066797919    2.6368520492
C        2.9060786691   -1.6398357278    0.6156310542
C        0.7634011332   -0.4773842351    1.8461448906
N       -1.3713728161   -1.1924444990    3.2325390414
N        4.0874873935   -2.2166538346   -0.0524829123
O        5.1802059203   -1.7116018976    0.2118535248
O        3.8853309102   -3.1277946985   -0.8582456539
O       -1.4729427161    0.9264895952    1.6327806924
O       -0.1919748638    1.0175918555    3.8439523909
S       -0.6352939380    0.3007102067    2.6568542942
Cl      -2.5857455315   -0.8932449656    4.4771185612
H        1.9632243440   -1.1581112306   -1.2606082223
H        3.7226426701   -1.9767455308    2.5831234595
H        0.0026528807   -0.0534116021   -0.1248439882
H        1.7276458616   -0.9522750092    3.7188217952
H       -1.8908081226   -1.5834843253    2.4383665990
19   
Generated by ForceBalance from scan.xyz: Frame 21 of 24
C        1.8993593319   -1.1197283295   -0.1952463524
C        2.8951734371   -1.5600030272    1.9999091691
C        0.8035245081   -0.5164260304    0.4251620535
C        1.7891795845   -0.9830128374    2.6185436151
C        2.9135594803   -1.6374087686    0.6063670436
C        0.7622906394   -0.4699530183    1.8193938290
N       -1.3693874604   -1.1633023776    3.2243945417
N        4.1003301541   -2.2132731768   -0.0525546528
O        5.2022721249   -1.9009570284    0.4047189300
O        3.9045501584   -2.9276349747   -1.0390242966
O       -1.4793691051    0.9234450018    1.5840831525
O       -0.1920914785    1.0605157992    3.7895595836
S       -0.6379389922    0.3198024313    2.6182730839
Cl      -2.5632077085   -0.8465423384    4.4839108602
H        1.9685833301   -1.1923605398   -1.2751738404
H        3.7303253676   -1.9417908869    2.5770986788
H       -0.0005285790   -0.0787175394   -0.1575313785
H        1.7269316791   -0.9140600583    3.6995932017
H       -1.9012671420   -1.5638490169    2.4433633634
19   
Generated by ForceBalance from scan.xyz: Frame 22 of 24
C        1.8936601379   -1.1293669551   -0.2099982514
C        2.9009300627   -1.5465316308    1.9841820975
C        0.7964712243   -0.5284840851    0.4100353544
C        1.7962438911   -0.9671943875    2.6028727420
C        2.9170756022   -1.6323288123    0.5904578927
C        0.7625558206   -0.4682058664    1.8039191272
N       -1.3536955261   -1.1634516161    3.2318888893
N        4.0976810941   -2.2263988143   -0.0673314602
O        5.1754372312   -2.1454492116    0.5273100371
O        3.9289143142   -2.7352605240   -1.1786325771
O       -1.4942610455    0.9011538440    1.5671028363
O       -0.1922519038    1.0782399954    3.7613878088
S       -0.6400874085    0.3188189664    2.6029698248
Cl      -2.5267841275   -0.8455977204    4.5100238454
H        1.9603440442   -1.2107256223   -1.2889846404
H        3.7382682138   -1.9252116868    2.5592902640
H       -0.0144729063   -0.1036321821   -0.1726009371
H        1.7385666091   -0.8894347007    3.6835641446
H       -1.8964271780   -1.5723777838    2.4627966267
19   
Generated by ForceBalance from scan.xyz: Frame 23 of 24
C        2.0976272109   -0.7404087313   -0.0958291762
C        2.7429227795   -1.9425104247    1.9386418392
C        1.0255440364   -0.1622620039    0.5862932221
C        1.6668914683   -1.3746125435    2.6157172542
C        2.9305789451   -1.6210580037    0.5922832887
C        0.8257003424   -0.4955934432    1.9265836893
N       -1.5274386865   -1.1892937686    2.9195172884
N        4.0781667555   -2.2171681523   -0.1251069733
O        4.9539777944   -2.7573164468    0.5550817911
O        4.0911174048   -2.1217896709   -1.3550509019
O       -1.1682046046    1.2505394763    1.9348750833
O       -0.1324604433    0.5804639511    4.1755721119
S       -0.5387875846    0.2642692687    2.8139184676
Cl      -2.7859991578   -1.0490409028    4.1469736459
H        2.2916946575   -0.5177991442   -1.1384739696
H        3.4302248734   -2.6193845884    2.4324987828
H        0.3619875116    0.5424697569    0.0957570124
H        1.4844394780   -1.5995769736    3.6613340856
H       -2.0279101732   -1.2642516641    2.0266835674
19   
Generated by ForceBalance from scan.xyz: Frame 24 of 24
C        2.0944474498   -0.7433672540   -0.0988818819
C        2.7495006877   -1.9218922230    1.9456862064
C        1.0152289373   -0.1703487598    0.5762950418
C        1.6735210560   -1.3491967543    2.6190205200
C        2.9380803042   -1.6070693526    0.5977366694
C        0.8222625440   -0.4865901262    1.9217011054
N       -1.5190695564   -1.1889712510    2.9373468279
N        4.0786769245   -2.2172744534   -0.1211763576
O        4.8111475033   -2.9781136926    0.5162507934
O        4.2212244657   -1.9259804275   -1.3114023667
O       -1.1902390110    1.2384040242    1.9118786225
O       -0.1370607325    0.6155210013    4.1577518912
S       -0.5464474481    0.2729417442    2.8033945023
Cl      -2.7796600195   -1.0373756457    4.1615421109
H        2.2879380300   -0.5277230650   -1.1430310355
H        3.4359589295   -2.5968854535    2.4428627355
H        0.3412638554    0.5178161784    0.0765066855
H        1.4957508269   -1.5623517476    3.6678975155
H       -2.0185451638   -1.2865812561    2.0461219478
