19   

C        5.6932072471    1.6983058062    0.7945063849
C        4.4450659901    1.8927533187    0.2895346960
C        5.3732873779    0.0755162514   -0.6115990430
C        4.9166906812   -1.4365495204   -2.4760919078
C        4.0963646025   -0.4282946711   -3.2747018959
C        6.6447587907   -2.0269781250   -0.8310735118
N        6.2422323037    0.5551873999    0.2402568849
N        4.2246266213    0.8649028231   -0.6146154240
N        5.6143152192   -1.1089326371   -1.3224836136
O        4.9361914834   -2.5756203117   -2.9329356719
H        6.1780870707    2.3372688780    1.5234587616
H        3.7679043088    2.6917628128    0.5687703968
H        3.9482627479   -0.7744036750   -4.3014331262
H        4.5018771015    0.5836874726   -3.2007058416
H        3.0979331783   -0.3904475630   -2.8337095840
H        6.3421044637   -2.3827624836    0.1589383589
H        7.5565157260   -1.4802016745   -0.5704230625
H        6.8437915152   -2.8765477572   -1.4918991274
H        3.3817278831    0.6760992554   -1.1440067030
19   

C        5.5840495268    1.8667991784    0.8682025081
C        4.3119583435    1.9511843186    0.3917917982
C        5.3624324283    0.1998571563   -0.5022440921
C        4.8780776198   -1.4233730131   -2.2495734966
C        4.0630845926   -0.4796758003   -3.1277394380
C        6.7438586327   -1.8383904374   -0.7032917999
N        6.2120123112    0.7637279894    0.3162734029
N        4.1530063671    0.8927548117   -0.4899101249
N        5.6782826483   -0.9723307117   -1.2065249782
O        4.7801427372   -2.6183592180   -2.5110049425
H        6.0328152404    2.5543985735    1.5758370987
H        3.5793108422    2.6985372125    0.6741365690
H        3.9984731858   -0.8819882242   -4.1424435277
H        4.4099355884    0.5556592314   -3.0838499713
H        3.0246179778   -0.5266161555   -2.7919158160
H        6.3877225370   -2.2943533158    0.2261541544
H        7.6032280285   -1.2597531593   -0.3502606548
H        7.0111893388   -2.6443403396   -1.3942998314
H        3.3165653186    0.6282370286   -0.9973470932
19   

C        5.5881097496    1.8981955190    0.8622478462
C        4.2967084696    1.9093625440    0.4311088032
C        5.4151098978    0.2256854549   -0.5053914305
C        4.8711577468   -1.4411266316   -2.1636188214
C        4.0911731861   -0.5355885651   -3.1100329539
C        6.8454315337   -1.7758704141   -0.7223585627
N        6.2607225900    0.8361717673    0.2825667032
N        4.1679460415    0.8458240177   -0.4495173444
N        5.7751718560   -0.9236080095   -1.2311708678
O        4.6331686674   -2.6415839076   -2.2340100888
H        6.0204008790    2.6086052761    1.5575370907
H        3.5320888722    2.6119373466    0.7422185091
H        4.1279911751   -0.9677065053   -4.1136376807
H        4.4173729754    0.5073268034   -3.0877631101
H        3.0258457081   -0.6397123758   -2.8907140990
H        6.4919849483   -2.2304443348    0.2090210187
H        7.7057107205   -1.1887472941   -0.3858531657
H        7.1022688006   -2.5892962291   -1.4085275106
H        3.3312648420    0.5338789671   -0.9295585989
19   

C        5.5870941515    1.8277728035    0.8932670816
C        4.2801182378    1.8753228023    0.5132616843
C        5.3471178713    0.2494919533   -0.5699617350
C        4.6429329038   -1.3052398148   -2.2444158041
C        3.9658762861   -0.3481124770   -3.2170927062
C        6.6817833583   -1.7899849654   -0.9227704044
N        6.2289176102    0.8017106534    0.2208101874
N        4.1082763218    0.8726548394   -0.4293844405
N        5.6677691131   -0.8520849436   -1.3887237520
O        4.1975095308   -2.4435198834   -2.1805191631
H        6.0511309871    2.4886720871    1.6163539530
H        3.5338060387    2.5603575141    0.8989186313
H        4.0928102232   -0.7583898872   -4.2223024429
H        4.3519144958    0.6732896947   -3.1648735531
H        2.8808676522   -0.4241234657   -3.1114241364
H        6.3182625905   -2.2422732066    0.0060559261
H        7.5905950890   -1.2710222718   -0.6019934356
H        6.8615682558   -2.6001612494   -1.6365519069
H        3.2513715766    0.5958194937   -0.8958013055
19   

C        5.6168924218    1.8362259255    0.8645347085
C        4.2930936829    1.8418772528    0.5432776743
C        5.3603596102    0.2449684055   -0.5795970216
C        4.5605545391   -1.3186584418   -2.1670368232
C        3.9581357065   -0.4343144294   -3.2492390295
C        6.6709860391   -1.7996186121   -0.9348668282
N        6.2602997419    0.8272857247    0.1676702392
N        4.1100809791    0.8305122973   -0.3879900914
N        5.6770593074   -0.8496166292   -1.4150290401
O        3.9705948559   -2.3516530787   -1.8858742668
H        6.0916809183    2.5144139437    1.5642357837
H        3.5435206122    2.5040572621    0.9610582655
H        4.2573957263   -0.8663025549   -4.2075708509
H        4.3369747474    0.5907781119   -3.2215674369
H        2.8702451013   -0.5360046669   -3.2753711001
H        6.3062643729   -2.2245097574    0.0065216092
H        7.5985672294   -1.2949529755   -0.6464818996
H        6.8195769311   -2.6293783217   -1.6329030492
H        3.2422063913    0.5205309257   -0.8124275624
19   

C        5.3805833133    1.5833852670    0.9280412680
C        4.0300165890    1.5969982849    0.7375505150
C        4.9345603535   -0.1842832973   -0.2290727010
C        4.0964539167   -1.4620856498   -2.0321278832
C        4.5364596027   -1.1934277204   -3.4621972246
C        6.3988136639   -1.8954623388   -1.1565481023
N        5.9273277631    0.4619084859    0.3239800623
N        3.7276862373    0.4664731176   -0.0076591372
N        5.0462206217   -1.3963375084   -0.9376130915
O        2.9913703967   -1.9307127146   -1.8440063064
H        5.9415924689    2.3339454378    1.4731701685
H        3.3420846843    2.3439438319    1.1166152709
H        5.1754660912   -2.0203636408   -3.7799362556
H        5.2102588351   -0.3332115178   -3.4958400193
H        3.6833750232   -1.1347713158   -4.1434073154
H        6.9323676597   -1.9994862926   -0.2059258950
H        6.9724183391   -1.1377012244   -1.7012181566
H        6.4054403818   -2.8124742489   -1.7538171675
H        2.8227661432    0.1150584642   -0.3137854984
19   

C        5.4550455502    1.6993187197    1.1010628703
C        4.1060013706    1.7457713783    0.9051541918
C        4.9817401502   -0.0178923634   -0.1203545616
C        4.0961799830   -1.3096867484   -1.9090743072
C        4.4989895118   -1.3988440207   -3.3732925974
C        6.4277295070   -1.7191076022   -1.1086933217
N        5.9839050248    0.5898609003    0.4595766703
N        3.7875309415    0.6480901941    0.1189986628
N        5.0813666212   -1.2066627918   -0.8747583365
O        2.9405227524   -1.5771159500   -1.6213254392
H        6.0275043457    2.4191209671    1.6749904549
H        3.4297498691    2.4921117253    1.3055646226
H        4.9658858095   -2.3726698579   -3.5368487046
H        5.3013495411   -0.6900441901   -3.5937199584
H        3.6307701804   -1.3255754221   -4.0337220479
H        6.9818412424   -1.8045123305   -0.1679318379
H        6.9924590479   -0.9708367817   -1.6752149545
H        6.4258941898   -2.6447826615   -1.6919516413
H        2.8809904441    0.3201974412   -0.2103661565
19   

C        5.4761892026    1.6633235115    1.2580441048
C        4.1334200228    1.7514445830    1.0368973526
C        4.9988616880    0.0445760554   -0.0923241671
C        4.1121311346   -1.2190488885   -1.9218711512
C        4.4691757254   -1.5542559243   -3.3631209825
C        6.4535250029   -1.6113035260   -1.1598997346
N        5.9984414106    0.5911390735    0.5508440287
N        3.8140239135    0.7180423565    0.1687759742
N        5.1095229229   -1.0878165116   -0.9286517277
O        2.9308420519   -1.3103564484   -1.6040316861
H        6.0490887612    2.3291008069    1.8934303883
H        3.4618090641    2.4822840543    1.4719854430
H        4.7753796388   -2.6024471373   -3.3959223881
H        5.3600311497   -1.0079264375   -3.6831245089
H        3.6049790621   -1.4457085094   -4.0240034449
H        6.9995437318   -1.7209414689   -0.2168812445
H        7.0310861005   -0.8494129700   -1.6943771300
H        6.4585034047   -2.5196219706   -1.7693488795
H        2.9124825211    0.4296563657   -0.2096860120
19   

C        5.4768308445    1.5960056128    1.3808155508
C        4.1395683659    1.7183708403    1.1459010021
C        5.0035037291    0.0884007536   -0.0974115213
C        4.1268874998   -1.1481314393   -1.9718924009
C        4.4379685596   -1.6606031341   -3.3720318439
C        6.4770543487   -1.5041201853   -1.2420251978
N        5.9978406318    0.5741462408    0.6017945126
N        3.8242964155    0.7576202460    0.1970753827
N        5.1323807022   -0.9753308119   -1.0157764821
O        2.9373507385   -1.0866521317   -1.6585741076
H        6.0471072905    2.2041234092    2.0737393687
H        3.4690155372    2.4240736467    1.6220179448
H        4.6957918235   -2.7192368076   -3.2906390955
H        5.3493993274   -1.2019930127   -3.7636588454
H        3.5696408018   -1.5778655892   -4.0312675504
H        7.0150993629   -1.6340320032   -0.2969744977
H        7.0639115359   -0.7290907302   -1.7465232975
H        6.4949496661   -2.3963982649   -1.8738957623
H        2.9288967045    0.5106004270   -0.2239938328
19   

C        5.4666197730    1.5450396864    1.4636335177
C        4.1307076032    1.6815597352    1.2316943429
C        5.0025798761    0.1387882149   -0.1175211257
C        4.1332255639   -1.0898058520   -2.0166086406
C        4.3992403578   -1.7506409020   -3.3636899163
C        6.5008724888   -1.3796414903   -1.3312435410
N        5.9923125898    0.5800625186    0.6181523611
N        3.8224698620    0.7867313255    0.2186427933
N        5.1519447675   -0.8567666889   -1.1037988212
O        2.9480130095   -0.8983332830   -1.7273491415
H        6.0331695983    2.1050182354    2.1988936071
H        3.4568556788    2.3542964279    1.7489932024
H        4.6684245797   -2.7936510676   -3.1802715822
H        5.3001465973   -1.3398009881   -3.8262049726
H        3.5155435306   -1.7256858521   -4.0070795816
H        7.0348418730   -1.5266778292   -0.3863887456
H        7.0898402719   -0.5877380977   -1.8060031185
H        6.5371871015   -2.2562428465   -1.9831757913
H        2.9319413053    0.5709548207   -0.2296717244
19   

C        5.4584013903    1.5144260461    1.5656661169
C        4.1222171119    1.6537100674    1.3391737633
C        5.0128609120    0.2138161471   -0.1109250720
C        4.1515105607   -0.9993405249   -2.0336739426
C        4.3818573893   -1.7850822705   -3.3195261696
C        6.5366803601   -1.2206027128   -1.3931972458
N        5.9957055737    0.6159567148    0.6566775039
N        3.8263931296    0.8268339107    0.2666670626
N        5.1822652391   -0.7089122115   -1.1610748494
O        2.9780470428   -0.6921054229   -1.7921698050
H        6.0175787756    2.0277487943    2.3396076217
H        3.4405834749    2.2855271567    1.8962908711
H        4.6903382849   -2.7985587084   -3.0515757754
H        5.2580195073   -1.4019729241   -3.8485292219
H        3.4812563436   -1.8250084778   -3.9382983660
H        7.0705144318   -1.3826801727   -0.4507695050
H        7.1224486089   -0.4125462082   -1.8437370265
H        6.5910866659   -2.0818496193   -2.0632685045
H        2.9415246274    0.6395137319   -0.2053651927
19   

C        5.4752906341    1.2645423396    1.7897849103
C        4.1454563950    1.4151991784    1.5379020229
C        5.0971971470    0.1444168325   -0.0302803070
C        4.2625541102   -0.9875234416   -2.0191965860
C        4.4823340298   -1.8646189713   -3.2477704255
C        6.6528998043   -1.1580175670   -1.4341279519
N        6.0497525790    0.4731845603    0.8073268745
N        3.8927655729    0.7026244022    0.3762409791
N        5.2977519809   -0.6613313039   -1.1682437690
O        3.1025830129   -0.5960474729   -1.8377541648
H        6.0050947393    1.6972755475    2.6307467530
H        3.4402120380    1.9810773671    2.1350284793
H        5.0190509461   -2.7740186109   -2.9677561257
H        5.1997388844   -1.3722675868   -3.9086181420
H        3.5461703081   -2.0731298737   -3.7728550964
H        7.4205047136   -0.7792551490   -0.7522594495
H        6.9268293873   -0.9854976019   -2.4789717860
H        6.6415273155   -2.2516794108   -1.3986982355
H        3.0257536457    0.5632739089   -0.1433581457
19   

C        5.3546709384    1.1772573374    1.8174411273
C        4.0209601619    1.3246930034    1.5816844548
C        4.9862431872    0.1951018818   -0.0800861869
C        4.1543070336   -0.9131748721   -2.0775427053
C        4.3421517325   -1.9009330648   -3.2233530993
C        6.5749273892   -0.9714098451   -1.5421037247
N        5.9389625067    0.4741052108    0.7751407564
N        3.7736647508    0.6980342758    0.3702150212
N        5.2061978404   -0.5191733798   -1.2733950754
O        3.0174366820   -0.4424698669   -1.9521385410
H        5.8803847163    1.5529924278    2.6878510729
H        3.3100862151    1.8348155680    2.2209267142
H        4.9351690477   -2.7577785205   -2.8940652230
H        4.9890472473   -1.4383411686   -3.9727677168
H        3.3886144569   -2.1799645791   -3.6799316688
H        7.3111519801   -0.2229083512   -1.2303950580
H        6.7459180186   -1.3341523156   -2.5583866402
H        6.7927610197   -1.7941974325   -0.8531475773
H        2.9083715725    0.5909646578   -0.1595933680
19   

C        5.3372798909    1.0755043779    1.8017658486
C        4.0036339949    1.2192947417    1.5613113008
C        5.0021074956    0.2158470596   -0.1582102332
C        4.1709624511   -0.8656190422   -2.1609692745
C        4.3415178295   -1.9597315913   -3.2078455741
C        6.6046810372   -0.8585033893   -1.6750081760
N        5.9431714222    0.4522524683    0.7215686854
N        3.7768652966    0.6698929412    0.3088182503
N        5.2372883385   -0.4140378111   -1.3967054875
O        3.0677007869   -0.3118116205   -2.1254978946
H        5.8482360724    1.4003077724    2.7009815421
H        3.2799379835    1.6795265220    2.2236563112
H        4.9640813742   -2.7712681793   -2.8229138040
H        4.9417170614   -1.5534476717   -4.0255611435
H        3.3789606961   -2.2872457298   -3.6099792930
H        7.3391150303   -0.1170987145   -1.3427114204
H        6.7672632666   -1.1890952557   -2.7041047057
H        6.8206543015   -1.7058367447   -1.0156378773
H        2.9195544542    0.5945941505   -0.2388450337
19   

C        5.3150732225    0.9819712897    1.8227665908
C        3.9835645450    1.1271296735    1.5689600016
C        5.0216269830    0.2491359760   -0.1919560992
C        4.1908817053   -0.8063693267   -2.1929669566
C        4.3484976083   -2.0068185001   -3.1170097196
C        6.6376204224   -0.7312264972   -1.7558269476
N        5.9467101875    0.4380446060    0.7147402834
N        3.7824653466    0.6579974632    0.2797142450
N        5.2720326134   -0.2919774950   -1.4709403050
O        3.1267624859   -0.1904223802   -2.2653429500
H        5.8069307297    1.2528425006    2.7500590585
H        3.2449128087    1.5386655874    2.2467338917
H        4.9827346061   -2.7714178887   -2.6614519633
H        4.9202390599   -1.6834306281   -3.9901298357
H        3.3797303507   -2.3720223872   -3.4684980165
H        7.3703376105    0.0047779179   -1.4080995392
H        6.7912583084   -1.0338156864   -2.7953355389
H        6.8519089719   -1.5990338678   -1.1229123939
H        2.9351725606    0.6178804356   -0.2864596330
19   

C        5.2696206759    0.8516440809    1.8371802476
C        3.9460116593    1.0211374602    1.5560470577
C        5.0321349936    0.2690784028   -0.2306364137
C        4.2096191696   -0.7350090991   -2.2420359946
C        4.3494705529   -2.0409489310   -3.0114573906
C        6.6651106725   -0.6169893818   -1.8261936092
N        5.9323725289    0.3874801703    0.7112270343
N        3.7794874631    0.6481007704    0.2306472920
N        5.3026255423   -0.1718376363   -1.5445324477
O        3.1997644851   -0.0703575430   -2.4500358144
H        5.7347888822    1.0523601738    2.7955750481
H        3.1903270141    1.3882716007    2.2406219296
H        4.9540207302   -2.7611875264   -2.4544337200
H        4.9386555470   -1.8379427220   -3.9087870242
H        3.3765460124   -2.4174973537   -3.3385853483
H        7.3986499450    0.1089010765   -1.4595284164
H        6.8162881183   -0.8911378369   -2.8742821042
H        6.8686242621   -1.5046815340   -1.2176635142
H        2.9475936011    0.6607840343   -0.3583903129
19   

C        5.2035341575    0.6963746265    1.7953979182
C        3.8913687044    0.9006924865    1.4840627105
C        5.0275299842    0.2598372261   -0.3124920045
C        4.2258887271   -0.7005713289   -2.3340042161
C        4.3336692050   -2.1163035558   -2.8801106449
C        6.6847887592   -0.5341777361   -1.9203577199
N        5.8984104526    0.3029755878    0.6620478455
N        3.7629195684    0.6214431379    0.1313312544
N        5.3228605458   -0.0853243407   -1.6489074038
O        3.2847938943   -0.0186872719   -2.7070836215
H        5.6388492748    0.8256314361    2.7797815076
H        3.1185776811    1.2312146555    2.1683272884
H        4.8250682116   -2.7699632755   -2.1548353311
H        5.0285929926   -2.1019404645   -3.7226928394
H        3.3691622645   -2.4811518662   -3.2433628028
H        7.4167069805    0.1801806775   -1.5287535489
H        6.8415722018   -0.7749681573   -2.9760591354
H        6.8744352596   -1.4440796067   -1.3408033950
H        2.9483278282    0.6905965650   -0.4765138315
19   

C        5.1707055135    0.5532250659    1.7596869806
C        3.8686538537    0.7936234100    1.4319969850
C        5.0420929564    0.2670736475   -0.3766954571
C        4.2682730954   -0.6372355837   -2.4185950805
C        4.3005005813   -2.1338805642   -2.6828790932
C        6.7242073984   -0.4222460288   -1.9980508630
N        5.8891774907    0.2325505496    0.6184302637
N        3.7694100567    0.6113146557    0.0602256124
N        5.3609683067    0.0182893626   -1.7258755264
O        3.4186085757    0.0309625802   -2.9735878693
H        5.5828302785    0.6086791797    2.7608463127
H        3.0835582831    1.0857419149    2.1198645506
H        4.6729368409   -2.6668673294   -1.8040617603
H        5.0686039217   -2.3266571958   -3.4352057770
H        3.3440811218   -2.4964567448   -3.0689377040
H        7.4501916195    0.2925435770   -1.5965504387
H        6.8800800258   -0.6406373176   -3.0590379394
H        6.9184588454   -1.3418547151   -1.4354927019
H        2.9674105733    0.7372861002   -0.5537857747
19   

C        4.9370970173    2.1303481547   -0.1061846952
C        4.7532394337    1.4230713051    1.0427692790
C        5.1177616214    0.0444428457   -0.6672679184
C        5.7124102520   -0.9309080220   -2.7453680323
C        4.7851735224   -0.2754640116   -3.7587717667
C        5.8038222513   -2.3112659460   -0.6871540219
N        5.1444237534    1.2561702916   -1.1588736474
N        4.8702348838    0.0831777911    0.7014896221
N        5.2667211792   -1.1554139043   -1.3916762686
O        6.8553095542   -1.1594481910   -3.0880408056
H        4.9188629809    3.2113327226   -0.1856593436
H        4.5496114386    1.8461189362    2.0196566369
H        4.5438256287   -1.0259262900   -4.5145925694
H        5.3385071427    0.4626625634   -4.3444093710
H        3.8635754122    0.1005280611   -3.3078209352
H        5.2358993865   -2.5353448183    0.2202547868
H        6.8074156610   -2.0544054837   -0.3299536030
H        5.9174083579   -3.1737868467   -1.3520140066
H        4.7732657086   -0.7280869625    1.3004981349
19   

C        4.8840166651    2.1400219936   -0.0516258861
C        4.7213639153    1.4588704570    1.1154611262
C        5.0646169944    0.0412093625   -0.5683748920
C        5.4870645023   -1.0393651131   -2.6408472350
C        4.5376229076   -0.2740032601   -3.5541672171
C        5.8078468573   -2.3130427591   -0.5409672345
N        5.0789358188    1.2421086256   -1.0865253539
N        4.8419616441    0.1123528893    0.8030701175
N        5.2177708303   -1.1844291132   -1.2487409941
O        6.5081482645   -1.4759734609   -3.1421967057
H        4.8605615150    3.2188159134   -0.1552916981
H        4.5289378965    1.9035525506    2.0849651952
H        4.4248164745   -0.8110292241   -4.4988024176
H        5.0532536795    0.6316413316   -3.8836975831
H        3.5934068337   -0.0193654559   -3.0663733792
H        5.3548203906   -2.4692704479    0.4419180016
H        6.8526078617   -2.0616664196   -0.3268161496
H        5.8344356549   -3.2140001972   -1.1627017614
H        4.7581199644   -0.6855196910    1.4217171493
19   

C        4.8500395689    2.1885161027   -0.0861855478
C        4.6926537630    1.5178873259    1.0871619536
C        5.1004929354    0.0890558059   -0.5739627735
C        5.4538992916   -1.0894995590   -2.6320257115
C        4.5423836604   -0.2480162084   -3.5189458033
C        5.8964912063   -2.2595455900   -0.5023721731
N        5.0867058912    1.2834565428   -1.1060760804
N        4.8606080653    0.1722869971    0.7938961308
N        5.3086192285   -1.1404011529   -1.2294830948
O        6.3332242986   -1.7188285557   -3.2004674808
H        4.7953847802    3.2646867502   -0.2040631384
H        4.4724105063    1.9686855842    2.0478625310
H        4.4066477748   -0.7262494938   -4.4918929512
H        5.0894398536    0.6637936944   -3.7720334100
H        3.6178699797    0.0431153725   -3.0141920590
H        5.5323178409   -2.3390486914    0.5253960122
H        6.9687738489   -2.0566654540   -0.4052540492
H        5.8376086163   -3.1926812066   -1.0723468583
H        4.7937641500   -0.6197261285    1.4220262171
19   

C        4.8591062706    2.0589721780   -0.1106537664
C        4.7275556015    1.4054689166    1.0748388554
C        5.1283740703   -0.0457872463   -0.5702605719
C        5.3302715215   -1.3329061938   -2.6057715207
C        4.4727616400   -0.4165186828   -3.4738866128
C        5.9151084098   -2.4057019871   -0.4669963966
N        5.0921219025    1.1403585967   -1.1191151456
N        4.9101911160    0.0580434542    0.7999658596
N        5.3461698136   -1.2820781450   -1.2054229724
O        6.0058386497   -2.1538158968   -3.2121138834
H        4.7893012650    3.1323747073   -0.2443477313
H        4.5140622667    1.8686737639    2.0311006597
H        4.2731412736   -0.8689680986   -4.4482765755
H        5.0696001958    0.4719834949   -3.6951359633
H        3.5883461744   -0.0555661507   -2.9432321455
H        5.7256773160   -2.3708689647    0.6089677168
H        7.0025151482   -2.3539451819   -0.5902879155
H        5.6671603695   -3.3629019581   -0.9374064829
H        4.8622657861   -0.7245778113    1.4413541335
19   

C        4.8008604172    2.0697496906   -0.0962989293
C        4.7294963416    1.4068740090    1.0884893483
C        5.1710860945   -0.0173801888   -0.5715104615
C        5.2698651203   -1.3650628407   -2.5941668755
C        4.4544169462   -0.4030349478   -3.4544045183
C        6.0242289215   -2.3557050169   -0.4791108973
N        5.0599264413    1.1673821270   -1.1128793822
N        4.9789112472    0.0723641958    0.8038606509
N        5.4409230143   -1.2360574258   -1.2158979676
O        5.7508643486   -2.3138429164   -3.2026253482
H        4.6718388664    3.1383778859   -0.2236324539
H        4.5105146930    1.8552636246    2.0504805728
H        4.2202780260   -0.8336814101   -4.4310970820
H        5.0663073865    0.4853153365   -3.6298952278
H        3.5867713234   -0.0202321425   -2.9117394219
H        5.9669214513   -2.2616587443    0.6082950304
H        7.0844732858   -2.4038326118   -0.7503464010
H        5.6633249528   -3.3157652454   -0.8626204100
H        4.9851403615   -0.7135386144    1.4428188703
19   

C        4.7741134929    2.0762185155   -0.0605627118
C        4.8561638131    1.4146946970    1.1236147184
C        5.3129645443    0.0337188568   -0.5690199481
C        5.3049960859   -1.3859416833   -2.5538607175
C        4.4888424617   -0.4227203507   -3.4125920946
C        6.3140947946   -2.2268063991   -0.4737563938
N        5.0446599675    1.1993061676   -1.0959257763
N        5.2174062632    0.1108300879    0.8173984300
N        5.6548370591   -1.1583545674   -1.2258278946
O        5.6045619103   -2.4281778991   -3.1261852755
H        4.5318454595    3.1265032426   -0.1737121219
H        4.6627253217    1.8441983865    2.0994289519
H        4.2219260400   -0.8595621694   -4.3781537661
H        5.0763172591    0.4855081077   -3.5679298181
H        3.6234464273   -0.0551029351   -2.8562256381
H        5.6707399750   -2.5353076543    0.3553921140
H        7.1691088603   -1.8141260098    0.0717089641
H        6.5939544148   -3.0974278393   -1.0758214068
H        5.3490098428   -0.6672939195    1.4518842916
