24   

C       -2.3375651222   -2.2523546022    1.5195067360
C       -4.1150194654    1.8533774052    2.3662456173
C       -4.6593588346   -0.4734323273    2.6193142993
C       -5.3662156600    2.2035242717    2.8863628468
C       -5.9108162667   -0.1167986334    3.1360991060
C       -3.7274742375    0.5089220685    2.2142820387
C       -6.2774615680    1.2217322985    3.2741588733
C       -2.3811753403    0.2435718123    1.6428402104
C       -0.3696257212   -1.0527428876    0.8011800953
C       -1.7355851253   -0.9573049848    1.3446762704
C        1.6403505322    1.8697864062    1.1291257647
N       -2.7827221847   -3.3222929165    1.6386156573
N        0.5973867405   -0.2022592971    0.7263207960
O        0.4444268158    1.1007560836    1.2553543288
Cl      -7.8406767764    1.6577062882    3.9186011906
H       -3.4382040266    2.6490280090    2.0762865751
H       -4.4698580991   -1.5330935967    2.5583588426
H       -5.6369474253    3.2476620136    2.9906566653
H       -6.6082454915   -0.8911251838    3.4345940762
H       -1.8506727846    1.1502252879    1.3948736468
H       -0.0843063136   -2.0355295111    0.4413507450
H        1.4626952662    2.8883478762    1.4859715816
H        1.9546338051    1.9128422739    0.0817553593
H        2.4406829907    1.4210533956    1.7251931046
24   

C       -2.2844868117   -2.2454691416    1.5651327103
C       -4.1732513597    1.8533825314    2.2318009577
C       -4.6028270647   -0.4657151443    2.6932344363
C       -5.4000428673    2.1966516432    2.8114435996
C       -5.8295895393   -0.1162821943    3.2705101119
C       -3.7427116621    0.5162374076    2.1525075630
C       -6.2412345694    1.2148767180    3.3346657419
C       -2.4313604038    0.2537201405    1.5064778739
C       -0.4373548208   -1.0072448735    0.6072751960
C       -1.7708317108   -0.9438636456    1.2377005839
C        1.6379165063    1.7791758764    1.3518480402
N       -2.6643167080   -3.3200472505    1.8061117250
N        0.5489456292   -0.1778049219    0.6231290584
O        0.4148641983    1.0435246449    1.3270448526
Cl      -7.7738953191    1.6419259035    4.0541326068
H       -3.5507091208    2.6474736941    1.8355015742
H       -4.3719929114   -1.5191197546    2.6956827465
H       -5.7067165692    3.2350777178    2.8562909443
H       -6.4720286160   -0.8902481517    3.6746675030
H       -1.9383397619    1.1491415671    1.1522899284
H       -0.1795332172   -1.9598639617    0.1573760790
H        1.4808494582    2.7386225368    1.8529805151
H        1.9878317832    1.9668380695    0.3320677726
H        2.4037571642    1.2177833451    1.8955137965
24   

C       -2.2014762762   -2.2074926695    1.6283605722
C       -4.2335763148    1.8518333392    2.1504595431
C       -4.5694374817   -0.4582421128    2.7228958084
C       -5.4390884729    2.1836797502    2.7792676086
C       -5.7738679080   -0.1200241463    3.3516211473
C       -3.7675391538    0.5254438003    2.1027058644
C       -6.2213603249    1.2008133892    3.3855881687
C       -2.4849148686    0.2720773453    1.4002823868
C       -0.5021179045   -0.9380206954    0.4388648750
C       -1.8013247417   -0.9149542721    1.1508452071
C        1.6269560652    1.6787536459    1.5250184111
N       -2.4950992964   -3.2750229942    1.9906039278
N        0.5031068940   -0.1406384770    0.5380601091
O        0.3824655107    0.9955788900    1.3759524419
Cl      -7.7264212655    1.6138178015    4.1686909675
H       -3.6564733872    2.6455426078    1.6898247263
H       -4.3078259738   -1.5043059894    2.7481883696
H       -5.7751228652    3.2137950145    2.7979015488
H       -6.3707118571   -0.8945769436    3.8195008378
H       -2.0271041574    1.1591520229    0.9790985632
H       -0.2711340035   -1.8548807360   -0.0920383909
H        1.4938705242    2.5507635686    2.1716995674
H        1.9924228128    2.0146231066    0.5497649495
H        2.3704056170    1.0146693509    1.9763417462
24   

C       -2.0782022028   -2.1270413610    1.6999928338
C       -4.2943554758    1.8550732328    2.0697460349
C       -4.5207752076   -0.4409775719    2.7442544564
C       -5.4858145542    2.1684373700    2.7337961070
C       -5.7099977073   -0.1207440881    3.4102854583
C       -3.7809532335    0.5457284181    2.0561775755
C       -6.2048537164    1.1836869906    3.4113911135
C       -2.5198477170    0.3083122892    1.3122850787
C       -0.5399750684   -0.8445091345    0.2985601235
C       -1.8025910781   -0.8618576309    1.0870999530
C        1.6650128864    1.5569182399    1.6667363110
N       -2.2768759781   -3.1729920503    2.1728755930
N        0.4930966750   -0.1014586829    0.4732040384
O        0.3999002996    0.9389445516    1.4311893026
Cl      -7.6911574390    1.5741321724    4.2405339509
H       -3.7666564206    2.6489798762    1.5535657365
H       -4.2199345906   -1.4757873525    2.7938573337
H       -5.8602826618    3.1853476514    2.7244896144
H       -6.2578204654   -0.8964844339    3.9329226917
H       -2.1028240035    1.1882888506    0.8351868873
H       -0.3500049450   -1.7146389966   -0.3195533228
H        1.5718666742    2.2941345219    2.4693025389
H        2.0104853149    2.0626897490    0.7600303413
H        2.4050901761    0.8065354785    1.9615333054
24   

C       -1.9593587537   -1.9841903262    1.7756269911
C       -4.4246921569    1.8640382391    1.9526027940
C       -4.4771528285   -0.3885416118    2.7902357817
C       -5.6099180304    2.1481695615    2.6406017430
C       -5.6596606414   -0.0968793424    3.4808540559
C       -3.8281213081    0.5916458585    2.0079247540
C       -6.2382553931    1.1708298935    3.4126315501
C       -2.5830902019    0.3794694870    1.2307256299
C       -0.5913677596   -0.7076714819    0.1827039262
C       -1.8084924971   -0.7598974629    1.0500869482
C        1.7653762378    1.3668011455    1.7919594509
N       -2.0619448776   -2.9975543125    2.3411404216
N        0.4870932254   -0.0532008256    0.4128416858
O        0.4643139915    0.8574194476    1.4988402003
Cl      -7.7162288112    1.5251877732    4.2723186271
H       -3.9692071419    2.6505956108    1.3618337949
H       -4.1075024055   -1.3965018947    2.8970053388
H       -6.0506813704    3.1360983133    2.5761404305
H       -6.1362844707   -0.8663187962    4.0773624978
H       -2.2307414904    1.2474033479    0.6840056663
H       -0.4847215483   -1.4983197016   -0.5509277070
H        1.7405093088    1.9224658822    2.7336997479
H        2.0924447908    2.0387054039    0.9928381777
H        2.4844335182    0.5470184510    1.8861191868
24   

C       -1.8204039539   -1.7665053661    1.8704163927
C       -4.7008518791    1.7887290991    1.7190605777
C       -4.4353570076   -0.3121822264    2.8566765860
C       -5.8795081875    2.0280998008    2.4347784550
C       -5.6140130440   -0.0662804572    3.5712697041
C       -3.9493556731    0.6150546201    1.9090785373
C       -6.3475003321    1.1029964151    3.3681133664
C       -2.7179608565    0.4459042697    1.1001797253
C       -0.6367086240   -0.5113007818    0.1076312839
C       -1.7989260670   -0.5941815260    1.0501650071
C        1.9743606243    1.0698853767    1.8719214999
N       -1.8224116553   -2.7376160405    2.5141944688
N        0.4983718764    0.0267339744    0.3584962557
O        0.6306730766    0.6601751260    1.6196432622
Cl      -7.8176305556    1.4015046638    4.2617658991
H       -4.3720103862    2.5332540411    1.0030713344
H       -3.9363751535   -1.2422244056    3.0802844697
H       -6.4400094579    2.9403189108    2.2669396869
H       -5.9645932743   -0.7938202933    4.2943461508
H       -2.4960875980    1.2676785518    0.4283464977
H       -0.7350079592   -1.0243673645   -0.8417222404
H        2.0532992841    1.4695765371    2.8869529569
H        2.2690095280    1.8480187398    1.1613913984
H        2.6556196865    0.2190690550    1.7739630597
24   

C       -1.6789809878   -1.4939832064    1.9678020214
C       -5.0304497049    1.5715843458    1.4562985772
C       -4.3934459799   -0.2223330564    2.9240947499
C       -6.2041960871    1.7600498090    2.1948587586
C       -5.5714418347   -0.0318877364    3.6565177084
C       -4.0962054404    0.5771125758    1.7986320998
C       -6.4870268243    0.9589991236    3.3012174110
C       -2.8734476415    0.4639097330    0.9666568998
C       -0.6615269247   -0.2592715571    0.0810745943
C       -1.7741845763   -0.3789471581    1.0744385095
C        2.2218445626    0.7253275349    1.8701804537
N       -1.5912216990   -2.4176179766    2.6728573362
N        0.5292294732    0.1428865108    0.3309301293
O        0.8521909385    0.3667538131    1.6931748852
Cl      -7.9515339505    1.1936619215    4.2226970305
H       -4.8476014733    2.2189167727    0.6062763064
H       -3.7412459157   -1.0046041919    3.2801354839
H       -6.9047736611    2.5366858511    1.9110557807
H       -5.7764682764   -0.6605812880    4.5154592376
H       -2.8053964861    1.1876568053    0.1622175884
H       -0.9325026072   -0.2654177595   -0.9680005628
H        2.3956243779    1.0090148951    2.9121364826
H        2.4793223233    1.5722237154    1.2267146873
H        2.8665607649   -0.1230116627    1.6221402619
24   

C       -2.2439047991   -2.3543558026    1.8998735438
C       -4.2991382413    1.7029840469    1.5513314509
C       -4.4170880750   -0.3032872333    2.8701080684
C       -5.4109606287    2.2152000933    2.2295290394
C       -5.5322657173    0.2124197813    3.5416405312
C       -3.7748196092    0.4319809662    1.8497588277
C       -6.0399440097    1.4739183413    3.2297106487
C       -2.5842954843   -0.0184566323    1.0877796035
C       -0.6748079127   -1.3588787566    0.2536256830
C       -1.8425303048   -1.1919826809    1.1630587128
C        2.0467006205   -2.5854131393    2.1555149940
N       -2.5685997255   -3.3135942459    2.4767155117
N        0.5147122748   -1.7077308038    0.5856394239
O        0.7346704860   -2.0690650322    1.9389147016
Cl      -7.4279393233    2.1123118263    4.0752084985
H       -3.8388911330    2.3141197913    0.7834272903
H       -4.0874837029   -1.2796811095    3.1897909390
H       -5.7918906562    3.1989819603    1.9813000937
H       -6.0085927568   -0.3738888308    4.3190843054
H       -2.2061603675    0.7084545584    0.3777746633
H       -0.7551393107   -0.9230173708   -0.7351686279
H        2.2016839049   -2.7561551903    3.2247276561
H        2.7979481490   -1.8740024272    1.7992692698
H        2.1692198599   -3.5340197968    1.6245039831
24   

C       -2.0704835847   -2.1765831022    2.0973384390
C       -4.4043028620    1.6878107245    1.4980359355
C       -4.3845364120   -0.2339067563    2.9416260080
C       -5.5552630543    2.1591789805    2.1393797199
C       -5.5389075349    0.2406078530    3.5764344898
C       -3.7903680472    0.4798573029    1.8775994101
C       -6.1353071779    1.4389802854    3.1833800813
C       -2.5666712441    0.0707565019    1.1442124737
C       -0.5779881383   -1.1589223108    0.3723664611
C       -1.7447115288   -1.0443273593    1.2781984468
C        2.0774103259   -2.8449985596    2.0097983747
N       -2.3363598346   -3.1105059782    2.7422289912
N        0.5878657615   -1.6353078195    0.6300090262
O        0.8261348070   -2.1660414006    1.9225917646
Cl      -7.5722907584    2.0262172383    3.9828468377
H       -3.9859587060    2.2810331168    0.6930094099
H       -3.9879494527   -1.1612095137    3.3246413600
H       -6.0056583585    3.0942744279    1.8274043684
H       -5.9765873925   -0.3283890338    4.3886826923
H       -2.2436657103    0.7828227464    0.3931529982
H       -0.6393777283   -0.6233781994   -0.5676598036
H        2.2289493966   -3.2037599215    3.0319266087
H        2.8946764943   -2.1659560946    1.7487616227
H        2.0894754722   -3.7015352443    1.3292807205
24   

C       -1.9331843839   -2.0117265858    2.3022586233
C       -4.4617218760    1.6787116521    1.4741674385
C       -4.3799679740   -0.1800197148    2.9954945963
C       -5.6454298974    2.1206433463    2.0753921960
C       -5.5666664583    0.2653437526    3.5907557810
C       -3.7984150100    0.5177796100    1.9138206465
C       -6.2106263697    1.4172569264    3.1385722341
C       -2.5448950561    0.1385307968    1.2139474064
C       -0.4981836799   -1.0008384557    0.5017708120
C       -1.6683757304   -0.9290097054    1.3971401852
C        2.0964898574   -3.0262770011    1.8444873458
N       -2.1510553968   -2.9039104116    3.0204253483
N        0.6362471710   -1.5849676878    0.6701434873
O        0.8759436023   -2.2893071916    1.8758939827
Cl      -7.6883471759    1.9678365437    3.8883016260
H       -4.0578673688    2.2578344338    0.6516585506
H       -3.9517276406   -1.0732342888    3.4221646975
H       -6.1334616929    3.0193189324    1.7164646105
H       -5.9929818201   -0.2904933823    4.4180256857
H       -2.2557958114    0.8339979503    0.4341240086
H       -0.5395038141   -0.3835492580   -0.3878713941
H        2.2305844718   -3.5525415296    2.7939729691
H        2.9421228995   -2.3487682382    1.6931520492
H        2.0733941544   -3.7606136068    1.0338399517
24   

C       -3.0037669818   -1.9072035395    0.4048070009
C       -4.0650478559    2.0860492210    2.3000871623
C       -4.5947560108   -0.2465819259    2.5301276773
C       -4.9600806878    2.3926828862    3.3309579960
C       -5.4904983958    0.0668784541    3.5599075225
C       -3.8579470131    0.7617573381    1.8698027591
C       -5.6825153997    1.3860958343    3.9704963573
C       -2.8825998881    0.5452070911    0.7702707957
C       -1.4551786517   -0.4364430594   -0.9468528024
C       -2.4541737722   -0.6113352694    0.1190144262
C       -0.0587425894   -3.4953365867   -2.1220620242
N       -3.4552995374   -2.9595374803    0.6244408220
N       -0.7349434441   -1.2952464606   -1.5813668447
O       -0.8449292849   -2.6710618395   -1.2641216929
Cl      -6.8000254172    1.7683981120    5.2565392711
H       -3.5249672404    2.9013381152    1.8325223368
H       -4.5122483777   -1.2945998850    2.2902312314
H       -5.0981117307    3.4218958026    3.6412924304
H       -6.0442107082   -0.7265293510    4.0487800299
H       -2.4164371806    1.4610426587    0.4250488087
H       -1.2349401523    0.5877604036   -1.2236679907
H       -0.1942574988   -4.5449064889   -1.8454254189
H        1.0001812705   -3.2379629121   -2.0252493283
H       -0.3686884450   -3.3614345046   -3.1627102578
24   

C       -2.8064510763   -1.9340898269    0.6016928390
C       -4.0996390530    2.0890886717    2.2737846979
C       -4.5699118143   -0.2493630162    2.5648079491
C       -5.0361523493    2.4025933926    3.2649357550
C       -5.5059375305    0.0708190301    3.5559997703
C       -3.8398141524    0.7580902565    1.8956173596
C       -5.7487280600    1.3964134549    3.9159446368
C       -2.8260298556    0.5361310860    0.8321751101
C       -1.3163649093   -0.4483061282   -0.8066626124
C       -2.3401342554   -0.6264459398    0.2329625435
C       -0.1534689193   -3.4866494162   -2.2637508287
N       -3.1822020960   -2.9974121109    0.8979853335
N       -0.6806834443   -1.3002315620   -1.5344412011
O       -0.9398879667   -2.6842572117   -1.3855754091
Cl      -6.9175742577    1.7872045004    5.1528609577
H       -3.5697523945    2.9046736807    1.7951999902
H       -4.4546095278   -1.3014633765    2.3592094886
H       -5.2148261037    3.4369656661    3.5347472525
H       -6.0523562831   -0.7222592327    4.0535401905
H       -2.3902574329    1.4566144461    0.4607137184
H       -1.0303249193    0.5760357694   -1.0139574127
H       -0.4019173317   -4.5415743335   -2.1157399314
H        0.9107315433   -3.3415240467   -2.0556127987
H       -0.3572497423   -3.2182112162   -3.3045981024
24   

C       -2.6037150066   -1.9405237091    0.7925119273
C       -4.1251084891    2.0906472146    2.2413673251
C       -4.5369882070   -0.2516443574    2.5858930601
C       -5.1025795351    2.4041075039    3.1922031084
C       -5.5127942556    0.0684494577    3.5379527209
C       -3.8136303735    0.7577606171    1.9124471495
C       -5.8055195982    1.3959586779    3.8507184783
C       -2.7622428771    0.5349690976    0.8867052078
C       -1.1717387396   -0.4595188385   -0.6722969044
C       -2.2227508215   -0.6306577548    0.3430446736
C       -0.2969578623   -3.4756472396   -2.3534995308
N       -2.9005715169   -3.0057398157    1.1622710461
N       -0.6315431738   -1.3036699054   -1.4813762099
O       -1.0620798115   -2.6528269503   -1.4753514572
Cl      -7.0249436940    1.7867129609    5.0378191019
H       -3.6048235666    2.9075435759    1.7545560355
H       -4.3884302615   -1.3050918397    2.4101843548
H       -5.3212882914    3.4399628862    3.4241712423
H       -6.0520836343   -0.7261083135    4.0408809151
H       -2.3529357300    1.4555490442    0.4864068278
H       -0.8144166885    0.5533132468   -0.8158858238
H       -0.6578639373   -4.5066069843   -2.2955452698
H        0.7587587580   -3.4543239316   -2.0672201337
H       -0.3982730863   -3.1228800845   -3.3841409806
24   

C       -2.3822467273   -1.9342920784    0.9819202827
C       -4.1417663443    2.0792599305    2.2021223522
C       -4.4826239429   -0.2659168452    2.6020550067
C       -5.1599112844    2.3839520058    3.1123472210
C       -5.4982061114    0.0454731245    3.5144966108
C       -3.7730070096    0.7497568586    1.9238013459
C       -5.8469983076    1.3700210444    3.7789947275
C       -2.6853537296    0.5329310858    0.9363716958
C       -1.0146782546   -0.4750098126   -0.5425437729
C       -2.0923631645   -0.6314481071    0.4525429521
C       -0.4810391831   -3.4460304680   -2.4200816562
N       -2.5978405391   -2.9928504095    1.4203218410
N       -0.5810479191   -1.3027337013   -1.4276379628
O       -1.1794589219   -2.5833078232   -1.5246647287
Cl      -7.1167442649    1.7499388719    4.9157903778
H       -3.6357347495    2.8996241866    1.7062054991
H       -4.2940204352   -1.3178186376    2.4564022509
H       -5.4233090672    3.4173178640    3.3057283952
H       -6.0253582604   -0.7534929808    4.0232608857
H       -2.3024555589    1.4504298315    0.5039823903
H       -0.5867713479    0.5166316629   -0.6306255927
H       -0.9847027016   -4.4161414867   -2.4608842177
H        0.5464698576   -3.5957231579   -2.0754970504
H       -0.4648564190   -3.0134355825   -3.4248850386
24   

C       -2.1693763200   -1.9215364679    1.1806625953
C       -4.1620584231    2.0621398953    2.1315964712
C       -4.4151822027   -0.2761146087    2.6273660246
C       -5.2230313583    2.3609792655    2.9937111542
C       -5.4731464416    0.0296314061    3.4922240590
C       -3.7273653881    0.7394689641    1.9272675787
C       -5.8875620928    1.3478247811    3.6843424214
C       -2.6016467867    0.5240310079    0.9843797902
C       -0.8439075396   -0.5089418113   -0.3960750777
C       -1.9560263726   -0.6386659650    0.5740871196
C       -0.7005597655   -3.3750223445   -2.4796515101
N       -2.3190416419   -2.9635882250    1.6811783447
N       -0.5247051474   -1.3040526962   -1.3544188793
O       -1.2809924196   -2.4910521797   -1.5225919777
Cl      -7.2105620994    1.7205955929    4.7612084209
H       -3.6757029922    2.8806508157    1.6134333925
H       -4.1765591472   -1.3239466882    2.5327721364
H       -5.5381041451    3.3889442608    3.1301149779
H       -5.9823020036   -0.7687674791    4.0198494680
H       -2.2416135746    1.4313699979    0.5125986922
H       -0.3381085998    0.4488314509   -0.4287055465
H       -1.3368256747   -4.2570060488   -2.5966630743
H        0.2899857616   -3.6959764855   -2.1439237040
H       -0.6080646762   -2.8749140061   -3.4484115319
24   

C       -1.9618382707   -1.9123904372    1.4231887960
C       -4.1814198855    2.0268897890    2.0234624095
C       -4.3304674538   -0.2793242999    2.6847416969
C       -5.2831528966    2.3306023859    2.8311913431
C       -5.4291972553    0.0316202390    3.4950679948
C       -3.6740616815    0.7179297758    1.9304697536
C       -5.9163898588    1.3363592221    3.5768200770
C       -2.5124504394    0.4912296878    1.0358846834
C       -0.6713298334   -0.5808436197   -0.2283932748
C       -1.8111469812   -0.6687101956    0.7262932735
C       -0.9574047528   -3.2400032967   -2.5467084132
N       -2.0582945850   -2.9233896113    1.9949331400
N       -0.4720696734   -1.3200230093   -1.2584505560
O       -1.3672210747   -2.3990575518   -1.4697627746
Cl      -7.2903108661    1.7152851040    4.5856332041
H       -3.7216389227    2.8293924974    1.4581494344
H       -4.0349683932   -1.3169722886    2.6737666059
H       -5.6550960214    3.3473081920    2.8813659585
H       -5.9132068860   -0.7523007221    4.0662686342
H       -2.1784045983    1.3748804189    0.5038437485
H       -0.0805089611    0.3272349124   -0.2067579540
H       -1.7227695424   -3.9994493001   -2.7306817234
H       -0.0167648131   -3.7393367694   -2.2962797154
H       -0.8199316798   -2.6496167353   -3.4577090446
24   

C       -2.7750763730   -1.6415483457    0.1851310177
C       -3.6523527023    1.5124659726    3.3751349325
C       -4.7924488754   -0.1842596290    2.1103832451
C       -4.8421946690    1.8107409900    4.0489202495
C       -5.9787831269    0.1156757262    2.7908528548
C       -3.5945128622    0.5087544927    2.3911585010
C       -6.0167238966    1.1140969099    3.7645544395
C       -2.2927221956    0.2758671805    1.7193640734
C       -0.5259410879   -0.6120492509    0.2060571793
C       -1.9375490094   -0.6014390722    0.7022061101
C       -0.6130668251    0.3939458067   -3.1800245976
N       -3.4339589063   -2.5063833049   -0.2342062769
N       -0.1358068793   -0.2412133178   -0.9569651526
O       -1.1487901313    0.0811053876   -1.8951144689
Cl      -7.5013367734    1.4857755380    4.6052423813
H       -2.7635580990    2.0809813295    3.6238155859
H       -4.8622743364   -0.9635897644    1.3675326307
H       -4.8591045142    2.5920781657    4.7997493205
H       -6.8842690735   -0.4326606857    2.5574133710
H       -1.4913039567    0.9279535640    2.0481112530
H        0.2588917642   -0.6937469686    0.9486114822
H       -1.4130163134    0.7522257978   -3.8342916802
H       -0.1637670285   -0.4981559040   -3.6262926240
H        0.1485908434    1.1750408769   -3.0943536090
24   

C       -2.7790387869   -1.9152037591    0.3546117579
C       -3.7031894841    1.7338160700    2.9610078397
C       -4.7610025999   -0.2766845110    2.1752339827
C       -4.8712525332    2.0799502330    3.6499139697
C       -5.9274928482    0.0758604105    2.8646983496
C       -3.6160290969    0.5490426059    2.2079661836
C       -5.9949688028    1.2544314839    3.6082849069
C       -2.3349621723    0.2629794854    1.5178931396
C       -0.5583397116   -0.8588911705    0.1693292580
C       -1.9458142884   -0.8154070930    0.7339882373
C       -0.7026194407    0.7495905950   -2.9647334740
N       -3.4306127093   -2.8297260539    0.0437927736
N       -0.1841475263   -0.3502671353   -0.9450962576
O       -1.1634974677    0.3779741196   -1.6660872000
Cl      -7.4527148602    1.6861852437    4.4671031841
H       -2.8524247038    2.4030535768    3.0194621708
H       -4.8018678147   -1.2055109363    1.6278908013
H       -4.9101065508    2.9981627524    4.2242421233
H       -6.7933073435   -0.5749803010    2.8219207530
H       -1.5669174639    1.0171853230    1.6489755623
H        0.1759894221   -1.4433116134    0.7109806491
H       -1.5148069630    1.2253401520   -3.5217681992
H       -0.3672677016   -0.1342199626   -3.5161125859
H        0.1290749592    1.4554505571   -2.8798710451
24   

C       -2.7784924222   -2.1329244016    0.5281639594
C       -3.7574311611    1.8157999527    2.6181133859
C       -4.7232327680   -0.3548119303    2.2518809871
C       -4.8983148173    2.2040923758    3.3297652319
C       -5.8644205912    0.0410971342    2.9599136250
C       -3.6387126821    0.5294144011    2.0621608150
C       -5.9635896300    1.3209254410    3.5064623940
C       -2.3845073182    0.2029116228    1.3413281173
C       -0.6171275668   -1.0473501612    0.0925855276
C       -1.9609721403   -0.9785651576    0.7450245941
C       -0.7122057612    1.0467689589   -2.7448562758
N       -3.4138506288   -3.0922541959    0.3458333748
N       -0.2442146510   -0.4224458250   -0.9631557509
O       -1.1217580736    0.5726181789   -1.4620524800
Cl      -7.3877778509    1.8052946017    4.3930947441
H       -2.9507660530    2.5311499868    2.5053740594
H       -4.7336578106   -1.3642441279    1.8711592220
H       -4.9609023975    3.2001304308    3.7521695286
H       -6.6846669158   -0.6558233137    3.0884735859
H       -1.6589333990    1.0078447251    1.2967450237
H        0.0033123205   -1.8981692026    0.3492463992
H       -1.4952095355    1.6802406386   -3.1713236149
H       -0.5312203161    0.2067251619   -3.4227324135
H        0.2061727907    1.6339104195   -2.6506318877
24   

C       -2.7938317289   -2.2821252747    0.6732330714
C       -3.7982220671    1.8140129863    2.4389594209
C       -4.7107388970   -0.4065772624    2.3188507821
C       -4.9179055878    2.2356905279    3.1650548365
C       -5.8304396098    0.0219919094    3.0420448503
C       -3.6640138874    0.4853457820    1.9976325344
C       -5.9455026527    1.3439596987    3.4728695124
C       -2.4344435051    0.1296193772    1.2481937845
C       -0.7136005239   -1.1923728431   -0.0040303020
C       -2.0063385797   -1.0866337586    0.7267614363
C       -0.6272852284    1.2136534901   -2.5932037684
N       -3.4014769567   -3.2745938483    0.6196385334
N       -0.3019883649   -0.4844557437   -0.9935787822
O       -1.0837406830    0.6362565130   -1.3700278515
Cl      -7.3430236034    1.8696180962    4.3782102455
H       -3.0209331031    2.5378174950    2.2218692690
H       -4.7071192296   -1.4469720593    2.0335711519
H       -4.9933019994    3.2649056584    3.4958903800
H       -6.6212618133   -0.6822672680    3.2736688538
H       -1.7352924930    0.9470492867    1.1107892758
H       -0.1660830432   -2.1191806315    0.1245533459
H       -1.3040660411    2.0173479639   -2.8970461534
H       -0.6010490158    0.4572369647   -3.3836771325
H        0.3769346342    1.6276406283   -2.4612132818
24   

C       -2.7889644805   -2.3645686435    0.7919289066
C       -3.8384090251    1.8081973196    2.3297567054
C       -4.7097866275   -0.4316800675    2.3538266277
C       -4.9339844413    2.2433206419    3.0841754118
C       -5.8041615329    0.0097274784    3.1074053993
C       -3.6949893307    0.4624059871    1.9462479328
C       -5.9274577814    1.3481668852    3.4807770757
C       -2.4913399658    0.0963271525    1.1588584051
C       -0.8159179975   -1.2735207655   -0.1204371556
C       -2.0577708428   -1.1355286286    0.6758838724
C       -0.4963647946    1.3351059779   -2.4984998202
N       -3.3471537324   -3.3840020166    0.8709069513
N       -0.3458310392   -0.5129112420   -1.0460099146
O       -1.0281322546    0.6937530487   -1.3393709550
Cl      -7.2937447898    1.8900014986    4.4234987898
H       -3.0876780442    2.5359091817    2.0433173432
H       -4.7017029896   -1.4834792003    2.1151106444
H       -5.0170269576    3.2859365307    3.3678291751
H       -6.5688475847   -0.6974368623    3.4078017055
H       -1.8215922441    0.9249043050    0.9620465092
H       -0.3282603793   -2.2407784309   -0.0710448850
H       -1.0453282106    2.2610811847   -2.6922028840
H       -0.5911806404    0.6796566717   -3.3696027152
H        0.5600267339    1.5760700332   -2.3453492870
24   

C       -2.7815145362   -2.3991857624    0.9062001447
C       -3.8921991602    1.8173671149    2.2475606714
C       -4.7145471469   -0.4358493167    2.3973091644
C       -4.9551444487    2.2589383181    3.0438020753
C       -5.7748471143    0.0116657366    3.1946753036
C       -3.7395076177    0.4610241689    1.9060493029
C       -5.9058127925    1.3600047281    3.5269106222
C       -2.5706118087    0.0908352959    1.0678556530
C       -0.9450626231   -1.3233069336   -0.2483162967
C       -2.1293498216   -1.1518267352    0.6163826867
C       -0.3414642071    1.4232874007   -2.4201935529
N       -3.2730900065   -3.4332754595    1.1208440061
N       -0.4089312742   -0.5383205065   -1.1185803382
O       -0.9748020345    0.7410340747   -1.3380344444
Cl      -7.2298478837    1.9094896240    4.5239316489
H       -3.1745004572    2.5491238694    1.8945268375
H       -4.7029016398   -1.4944496063    2.1919298499
H       -5.0458373028    3.3097243156    3.2928253972
H       -6.5070991134   -0.6985574527    3.5613970822
H       -1.9424931548    0.9324700130    0.8082098031
H       -0.5165807503   -2.3196243257   -0.2591994257
H       -0.7655990052    2.4262990891   -2.5222663493
H       -0.4998256505    0.8759538311   -3.3543206903
H        0.7334456863    1.5118860091   -2.2349135144
24   

C       -2.7625250196   -2.4233510535    0.9849671145
C       -3.9828688959    1.8076969363    2.1399263440
C       -4.6980458589   -0.4638834356    2.4609429173
C       -5.0079242677    2.2505299115    2.9835920510
C       -5.7196528894   -0.0149178464    3.3066200437
C       -3.7953061123    0.4415061216    1.8587266128
C       -5.8847176805    1.3432379632    3.5775509936
C       -2.6703954697    0.0742500284    0.9594007360
C       -1.0839655371   -1.3696797884   -0.3937241613
C       -2.2076454588   -1.1732093543    0.5384782330
C       -0.1518218592    1.4771957512   -2.3207450894
N       -3.1740543143   -3.4601204226    1.3209121183
N       -0.4793282197   -0.5709315366   -1.2063911282
O       -0.9025393416    0.7731277826   -1.3316495190
Cl      -7.1605780380    1.8945297467    4.6345701576
H       -3.3230907828    2.5473690801    1.7008426065
H       -4.6593733302   -1.5306240727    2.3086021656
H       -5.1265530449    3.3091027355    3.1829578790
H       -6.3949784651   -0.7318562921    3.7594108861
H       -2.1130853617    0.9339964018    0.6196645432
H       -0.7183000626   -2.3883503967   -0.4668653408
H       -0.4540932346    2.5283076119   -2.3335478680
H       -0.3340930180    1.0449558787   -3.3092359548
H        0.9178505258    1.4206313188   -2.0966080418
24   

C       -2.3715542403   -2.2612576559    1.4629268454
C       -4.0580147662    1.8142731258    2.5716747981
C       -4.7275285059   -0.4919465715    2.4897837116
C       -5.3356699872    2.1705612720    3.0176464060
C       -6.0041916371   -0.1289550793    2.9358180009
C       -3.7170795171    0.4769066741    2.2937806452
C       -6.3216901308    1.2023958697    3.2035277912
C       -2.3321632910    0.2073374396    1.8232951059
C       -0.3066549176   -1.1016173049    1.0097831080
C       -1.7047745089   -0.9856679089    1.4557584021
C        1.6023613913    1.9103501073    0.8945302251
N       -2.8637894073   -3.3170677724    1.4501788965
N        0.6380703922   -0.2364984354    0.8541275615
O        0.4294880103    1.1330294388    1.1342808121
Cl      -7.9164575111    1.6461992844    3.7591426078
H       -3.3230548337    2.6004001754    2.4408411379
H       -4.5836448517   -1.5459301771    2.3150111613
H       -5.5681666167    3.2090319558    3.2224662541
H       -6.7602836186   -0.8928482038    3.0767240856
H       -1.7468647370    1.1098639262    1.7659445709
H        0.0128362022   -2.1069162853    0.7563860261
H        1.3976111017    2.9624711837    1.1124977148
H        1.9081516388    1.8197548312   -0.1522165420
H        2.4192268895    1.5690102988    1.5376150639
