22   
Generated by ForceBalance from scan.xyz: Frame 1 of 24
C       -2.5740915300    2.8464587149    2.3961423385
C       -1.8696773336    3.9077912194    1.8224782219
C       -1.8810761025    1.6812304928    2.7354492497
C       -0.4953058990    3.7630062543    1.6038266194
C       -0.5092895070    1.6632157043    2.4850893138
C        0.6267351562   -0.4902567725    0.3594547487
C        2.6351647736    0.5637483345    1.3697464382
N        0.1833539778    2.6553224061    1.9305439600
N        1.3807437417   -0.1731013851    1.5749196008
O        1.3948743022    0.5538118192    3.9965116646
O       -0.5089135850   -0.8920247681    3.1045942877
S        0.4668240000    0.1872866784    2.9280854684
H       -3.6434288579    2.9215158682    2.5743708719
H       -2.3699955812    4.8302634933    1.5430332152
H       -2.3675687808    0.8159427313    3.1723781518
H        0.0831075177    4.5650140406    1.1493076622
H       -0.2412154293   -1.0994374607    0.6135336506
H        0.3038245350    0.4156491021   -0.1737490342
H        1.2747959392   -1.0746840318   -0.2998425363
H        3.0815657905    0.7922635740    2.3361333333
H        3.3158058890   -0.0870142304    0.8117107599
H        2.4733152420    1.4948206766    0.8139604342
22   
Generated by ForceBalance from scan.xyz: Frame 2 of 24
C       -2.6270035625    2.8408495869    2.4591484911
C       -1.9680295040    3.8800554864    1.7975920118
C       -1.9086005033    1.6891797050    2.7917652874
C       -0.6123182422    3.7274697010    1.4865191013
C       -0.5590758709    1.6617275845    2.4427059457
C        0.6227866650   -0.3406195242    0.2703306208
C        2.7222264024    0.4067978759    1.4037403930
N        0.0899210262    2.6313741941    1.8026950403
N        1.3540075553   -0.1029048442    1.5122416279
O        1.3929097379    0.6094785302    3.9315579131
O       -0.4779733096   -0.8930031688    3.0903831123
S        0.4583987402    0.2141369765    2.8768814869
H       -3.6812572662    2.9224809971    2.7095965085
H       -2.4897502096    4.7911676055    1.5200280971
H       -2.3608299128    0.8410117349    3.2944760183
H       -0.0698935606    4.5121541850    0.9627300016
H       -0.3306783892   -0.8241612046    0.4895036266
H        0.4457010640    0.5924882178   -0.2822870894
H        1.2086976890   -1.0207771730   -0.3554409782
H        3.1397819599    0.5370904293    2.4003946514
H        3.3192337971   -0.3352632687    0.8636380046
H        2.7534378651    1.3646999259    0.8689623031
22   
Generated by ForceBalance from scan.xyz: Frame 3 of 24
C       -2.6727881100    2.8347572356    2.5003611715
C       -2.0619389901    3.8911893599    1.8204134632
C       -1.9124927536    1.7045210278    2.8129533916
C       -0.7111732049    3.7762939364    1.4728891528
C       -0.5734191553    1.7133266231    2.4236748780
C        0.6592355883   -0.2711520781    0.2292667661
C        2.8039105557    0.2821717288    1.4090242624
N        0.0298638182    2.7002502531    1.7677697816
N        1.3662561031    0.0375334504    1.4658807008
O        1.4308039759    0.7106106209    3.8867271966
O       -0.4164978862   -0.8338517161    3.0779711653
S        0.4912368824    0.2945398970    2.8434012889
H       -3.7214472698    2.8865899375    2.7805011358
H       -2.6165129354    4.7869810269    1.5569021823
H       -2.3265517741    0.8450552240    3.3290111201
H       -0.2050734974    4.5763108371    0.9360345671
H       -0.3579377993   -0.5993866539    0.4504927405
H        0.6212862471    0.6041900200   -0.4323917491
H        1.1680391627   -1.0926986351   -0.2866037925
H        3.1715844287    0.5180169217    2.4062806766
H        3.3108521044   -0.6189574715    1.0453697004
H        3.0259980832    1.1224257246    0.7388915067
22   
Generated by ForceBalance from scan.xyz: Frame 4 of 24
C       -2.7499912930    2.7658579086    2.3659119699
C       -2.1626703245    3.9828790068    2.0170172922
C       -1.9247420158    1.6595508520    2.5942843369
C       -0.7674107127    4.0504803366    1.9079881132
C       -0.5516963389    1.8542939465    2.4528200422
C        0.6748892049   -0.5407848520    0.2976333546
C        2.8148947515    0.2790738314    1.2731725459
N        0.0330288841    3.0006421016    2.1208765177
N        1.3487064665    0.3049719813    1.2858603159
O        1.5765462115    0.8769922201    3.7502147762
O       -0.2878802944   -0.7049518349    3.0100040206
S        0.5776231279    0.4583217237    2.7671216309
H       -3.8286593397    2.6755255373    2.4616758775
H       -2.7657096808    4.8670034216    1.8320779795
H       -2.3133940208    0.6863479190    2.8730938232
H       -0.2757985221    4.9835696951    1.6391685044
H       -0.3979252446   -0.3380686159    0.2947032963
H        1.0718256981   -0.2861660626   -0.6892407762
H        0.8275418466   -1.6107133395    0.4880143373
H        3.1978853776    0.9553803045    2.0355846473
H        3.2129276836   -0.7288928925    1.4531091198
H        3.1476686975    0.6263778824    0.2904120518
22   
Generated by ForceBalance from scan.xyz: Frame 5 of 24
C       -2.7706243699    2.7054227731    2.3638824756
C       -2.2403634884    3.9435482967    1.9982457859
C       -1.8947088027    1.6407826477    2.6008486294
C       -0.8500622915    4.0735569042    1.8827423539
C       -0.5324932305    1.8964932934    2.4504654585
C        0.6426311412   -0.3433585920    0.2969294593
C        2.8516539948    0.1154720307    1.3248994495
N       -0.0014492518    3.0640216309    2.1044945472
N        1.4129757911    0.4119784870    1.2904773852
O        1.6561496303    1.0247446405    3.7464903914
O       -0.1599837540   -0.6358941994    3.0842110405
S        0.6542209271    0.5544125251    2.7902190534
H       -3.8436335618    2.5671607718    2.4654331929
H       -2.8837666724    4.7970969015    1.8057219433
H       -2.2369773959    0.6539335205    2.8923406521
H       -0.4024178673    5.0249947237    1.6018692043
H       -0.3867537413    0.0214750398    0.2630931887
H        1.0951189954   -0.1649342419   -0.6823398953
H        0.6280503728   -1.4210573504    0.5039506085
H        3.3299565265    0.7304968809    2.0858774177
H        3.0575809753   -0.9441611595    1.5304831899
H        3.2648069266    0.3765518385    0.3464628342
22   
Generated by ForceBalance from scan.xyz: Frame 6 of 24
C       -2.7757460465    2.6645400874    2.3790735491
C       -2.3046834499    3.9143226712    1.9735079730
C       -1.8524219617    1.6410306783    2.6156959655
C       -0.9243377922    4.0975602935    1.8195081895
C       -0.5058285519    1.9491187924    2.4267118883
C        0.6461152690   -0.1292959807    0.2688585033
C        2.8537161552   -0.0408828656    1.3557196916
N       -0.0300203700    3.1284043634    2.0437724707
N        1.4942137423    0.5201984221    1.2770138735
O        1.7336087604    1.1907533128    3.7200333565
O       -0.0165662088   -0.5538636309    3.1292110196
S        0.7372023049    0.6649495410    2.7873547294
H       -3.8394789349    2.4860952899    2.5107018722
H       -2.9866932764    4.7370274061    1.7795811445
H       -2.1467380274    0.6470855256    2.9344274642
H       -0.5225658277    5.0592531505    1.5062856191
H       -0.3250654352    0.3687408526    0.2179104213
H        1.1344056145   -0.0106405165   -0.7020630894
H        0.4890574669   -1.1967118194    0.4723931011
H        3.4160348651    0.4822256595    2.1286198907
H        2.8526227485   -1.1193122376    1.5667521825
H        3.3355010473    0.1336810589    0.3898872682
22   
Generated by ForceBalance from scan.xyz: Frame 7 of 24
C       -2.7832170944    2.5863070783    2.4147554039
C       -2.3696665548    3.8359147638    1.9494501366
C       -1.8174104154    1.6035674021    2.6530421771
C       -1.0028893658    4.0604114860    1.7404956180
C       -0.4895740336    1.9516602126    2.4092891801
C        0.6849023027    0.0720477184    0.2284767842
C        2.8105757570   -0.2319812483    1.3968042954
N       -0.0673684708    3.1316310942    1.9700354500
N        1.5832640130    0.5801038991    1.2777135619
O        1.7767794381    1.3009273398    3.7157470281
O        0.1134960097   -0.5248615616    3.1536086987
S        0.8040955166    0.7251392972    2.7873969207
H       -3.8350849825    2.3768704953    2.5890081564
H       -3.0863256636    4.6274640546    1.7509424081
H       -2.0656769113    0.6103978483    3.0111652255
H       -0.6459813237    5.0224875095    1.3781627232
H       -0.1933254770    0.7148499637    0.1400619016
H        1.2278954209    0.1173381416   -0.7191198400
H        0.3603069407   -0.9613084258    0.4119590662
H        3.4313400186    0.1667239556    2.1996400373
H        2.5957173376   -1.2926010466    1.5858970390
H        3.3561889893   -0.1381773171    0.4543598602
22   
Generated by ForceBalance from scan.xyz: Frame 8 of 24
C       -2.4014284357    2.7134262048    1.4929073419
C       -1.8541851583    3.9219147154    1.9308465170
C       -1.7060651875    1.5280008841    1.7433592329
C       -0.6276081766    3.9009214912    2.6028795155
C       -0.4933756518    1.6369590899    2.4250054724
C        2.4812082027    1.0816354755    1.4899830833
C        2.1546602199   -1.3286300732    1.4924656537
N        0.0494380596    2.7717033195    2.8515358772
N        1.4840038754   -0.0089157011    1.4941499977
O        1.1108444531    0.2479486351    4.0913471523
O       -0.5719633894   -0.9912856625    2.6296868444
S        0.3999093249    0.0931150327    2.8192990387
H       -3.3535830466    2.6910957450    0.9698815165
H       -2.3642742359    4.8654861653    1.7604795270
H       -2.0806073863    0.5555046617    1.4447432124
H       -0.1711595595    4.8223330933    2.9588737747
H        1.9858363259    2.0516557581    1.4834423180
H        3.1564099924    1.0337716646    2.3542634665
H        3.0630686466    0.9818549822    0.5698068714
H        1.4044687046   -2.1194101947    1.5280364660
H        2.7062397483   -1.4110080570    0.5525260673
H        2.8538623774   -1.4424380804    2.3314868894
22   
Generated by ForceBalance from scan.xyz: Frame 9 of 24
C       -2.5016367527    2.6756224031    1.5688709066
C       -1.9108512889    3.9136102031    1.8331754979
C       -1.7878120588    1.5105393925    1.8597163968
C       -0.6245695629    3.9408350421    2.3815835626
C       -0.5153786092    1.6679307190    2.4099629336
C        2.6466196882    1.0717641813    1.7221114322
C        2.0427339397   -1.2684449738    1.3253861018
N        0.0684905642    2.8322150640    2.6741156563
N        1.5446664618    0.1011771131    1.5653544302
O        1.0765067132    0.3642984857    4.1397441302
O       -0.5023460698   -0.9629665543    2.6406226787
S        0.4182618395    0.1625935862    2.8461464846
H       -3.5005545975    2.6153905192    1.1454884436
H       -2.4321910505    4.8430214004    1.6238264937
H       -2.1888281681    0.5186209878    1.6850321586
H       -0.1322646002    4.8863091691    2.6002691171
H        2.2467333930    2.0671666927    1.9132867572
H        3.3245479037    0.7977083978    2.5404575796
H        3.2015996550    1.0884827666    0.7800170899
H        1.2008222335   -1.9530380889    1.2260482704
H        2.5977088318   -1.2489122729    0.3837196944
H        2.7094661457   -1.6181105725    2.1253840792
22   
Generated by ForceBalance from scan.xyz: Frame 10 of 24
C       -2.5681336425    2.6216395333    1.6057189934
C       -1.9564515928    3.8711932058    1.7295957360
C       -1.8403216311    1.4765922593    1.9402950411
C       -0.6358312485    3.9304564206    2.1875899521
C       -0.5343114245    1.6666699707    2.3909560176
C        2.7731389449    1.0369510341    1.9047269647
C        1.9601044276   -1.1725170426    1.1595673935
N        0.0708899532    2.8431635509    2.5217227717
N        1.6077214733    0.1734099905    1.6421967463
O        1.0487424364    0.4628650364    4.1772342463
O       -0.4303441410   -0.9621486583    2.6645012087
S        0.4381200319    0.2036893926    2.8711441763
H       -3.5933279036    2.5370134099    1.2555607257
H       -2.4869685801    4.7855420518    1.4808510070
H       -2.2537612552    0.4768993925    1.8678262936
H       -0.1266515404    4.8861472568    2.2953697124
H        2.4388235328    2.0224056158    2.2279750368
H        3.4368042474    0.6126282764    2.6685723896
H        3.3214047775    1.1423638439    0.9642193014
H        1.0540588873   -1.7499276159    0.9810840190
H        2.4961306131   -1.0476041503    0.2146107222
H        2.6033081541   -1.7162060603    1.8651524204
22   
Generated by ForceBalance from scan.xyz: Frame 11 of 24
C       -2.5996209229    2.6413078730    1.5795210541
C       -1.9929996892    3.8989525823    1.5701751533
C       -1.8520053671    1.5331495647    1.9891405177
C       -0.6566944909    4.0037822920    1.9738436934
C       -0.5327695139    1.7681263516    2.3729214008
C        2.8980730784    1.1066797401    2.0625885814
C        1.9172775932   -0.9568008537    1.0831200392
N        0.0696748570    2.9538446882    2.3752179020
N        1.6892732477    0.3253446343    1.7618430415
O        1.0564123596    0.7266775935    4.2353405956
O       -0.3371676233   -0.8384822159    2.7748111919
S        0.4835688272    0.3681143864    2.9368347486
H       -3.6356912953    2.5216588313    1.2743919919
H       -2.5380276782    4.7853392659    1.2593398697
H       -2.2604141848    0.5290818540    2.0196301777
H       -0.1512419405    4.9675632709    1.9776151009
H        2.6190844392    2.0728063860    2.4813802858
H        3.5615338064    0.5855064152    2.7642034208
H        3.4267654581    1.2743646123    1.1196819365
H        0.9653536029   -1.4466679350    0.8837012479
H        2.4155784858   -0.7439763897    0.1327622277
H        2.5488847286   -1.6337381535    1.6744496769
22   
Generated by ForceBalance from scan.xyz: Frame 12 of 24
C       -2.6163347509    2.6466064164    1.5845282010
C       -1.9750727599    3.8807923284    1.4634255842
C       -1.8839194340    1.5463368831    2.0415687607
C       -0.6199899117    3.9709993588    1.8050502854
C       -0.5431800130    1.7647349250    2.3532515742
C        2.9582935321    0.9780677894    2.1529994825
C        1.7778157783   -0.8711819837    0.9639940520
N        0.0925575606    2.9282753530    2.2465050320
N        1.6986469197    0.2919376003    1.8498731489
O        1.0206987966    0.7895712696    4.2622508971
O       -0.3625274520   -0.8232696472    2.8360232386
S        0.4657356628    0.3812271172    2.9716056569
H       -3.6670777727    2.5385694602    1.3291791790
H       -2.5068330803    4.7602813644    1.1125594046
H       -2.3194407782    0.5600003855    2.1573456027
H       -0.0877090928    4.9166163160    1.7213297320
H        2.7632656874    1.8685556582    2.7478889468
H        3.6533975842    0.3263503617    2.6979681932
H        3.4156155452    1.2837700297    1.2067138203
H        0.7835643751   -1.2829997385    0.7965577342
H        2.1965232483   -0.5471220588    0.0057352045
H        2.4162592879   -1.6587688924    1.3861733411
22   
Generated by ForceBalance from scan.xyz: Frame 13 of 24
C       -2.5039977817    2.6305228859    1.5437233890
C       -1.8129959257    3.8354804312    1.3972607794
C       -1.8243874766    1.5179958034    2.0478774026
C       -0.4619939369    3.8828557853    1.7592778031
C       -0.4816967524    1.6929740417    2.3832670123
C        2.8876729459    1.0629321854    2.1414419764
C        1.7661681957   -0.8419106214    0.9571504175
N        0.2010412692    2.8275182159    2.2481028661
N        1.7682750557    0.1260143901    2.0507299523
O        0.9490938935    0.6875132673    4.3761494305
O       -0.3917542258   -0.8875136771    2.8608832544
S        0.4644713055    0.2876078477    3.0567976928
H       -3.5532586052    2.5553717189    1.2709225382
H       -2.3037302063    4.7234831684    1.0099485341
H       -2.2997154145    0.5525952572    2.1816780184
H        0.1098049631    4.8028439172    1.6532659067
H        2.8196999327    1.6301236100    3.0681770462
H        3.8260873384    0.4967101125    2.1436708382
H        2.8842091437    1.7613537962    1.2961495224
H        0.9150012313   -1.5131423719    1.0607933313
H        1.7175628384   -0.3377821459   -0.0174829074
H        2.6864886401   -1.4347445612    1.0044179994
22   
Generated by ForceBalance from scan.xyz: Frame 14 of 24
C       -2.4617952545    2.5569722201    1.4898621876
C       -1.7718529325    3.7604450958    1.3290449903
C       -1.7964845026    1.4672428554    2.0593034347
C       -0.4360822507    3.8288192781    1.7414456124
C       -0.4699171772    1.6623189874    2.4435871312
C        2.8656155679    1.0404951759    2.2358597212
C        1.6288588294   -0.7387765642    0.9963239197
N        0.2127589572    2.7960263370    2.2931771257
N        1.7853768127    0.0505658575    2.2180864596
O        0.9442100290    0.7288580356    4.4980733248
O       -0.4053334950   -0.8910621846    3.0407399120
S        0.4591743020    0.2834798861    3.1951064733
H       -3.4989499635    2.4651964550    1.1786206230
H       -2.2512263651    4.6312091884    0.8915759573
H       -2.2718976644    0.5042756978    2.2093912507
H        0.1347039845    4.7481860080    1.6250120989
H        2.8897279994    1.5358042975    3.2054280972
H        3.8137987901    0.5140396855    2.0849222003
H        2.7355700397    1.7954423255    1.4510506953
H        0.8779671335   -1.5119342449    1.1521388649
H        1.3451238218   -0.1158984997    0.1351972039
H        2.5873121283   -1.2202303503    0.7799241083
22   
Generated by ForceBalance from scan.xyz: Frame 15 of 24
C       -2.4479719130    2.5055683261    1.5166210545
C       -1.7504766212    3.6884195764    1.2608080713
C       -1.7738847923    1.4417101498    2.1227683784
C       -0.3990420832    3.7629657035    1.6161322707
C       -0.4318052358    1.6418916704    2.4458452194
C        2.9483719714    0.9903570574    2.3460278901
C        1.5651955554   -0.5305546541    0.9536848373
N        0.2579721788    2.7545082632    2.2032940733
N        1.8390336513    0.0294926217    2.2800629449
O        1.0001128376    0.7981262307    4.5373190067
O       -0.3500056795   -0.8829901557    3.1625765926
S        0.5070952587    0.3026266265    3.2546450296
H       -3.4970240503    2.4104681971    1.2494466358
H       -2.2367678630    4.5390515798    0.7924835634
H       -2.2521365495    0.4936567718    2.3429795713
H        0.1778403186    4.6654676735    1.4233784319
H        3.0352399690    1.3722508636    3.3620863759
H        3.8683377508    0.4555301193    2.0897105642
H        2.8038182249    1.8290842982    1.6548413407
H        0.7911925144   -1.2938309333    1.0298912255
H        1.2573818142    0.2414427425    0.2326865936
H        2.4828596795   -1.0018672181    0.5906263191
22   
Generated by ForceBalance from scan.xyz: Frame 16 of 24
C       -2.5169170349    2.4565920211    1.5394949949
C       -1.7938554136    3.5940817691    1.1726063518
C       -1.8456844219    1.4028325687    2.1661069375
C       -0.4212261885    3.6350112499    1.4416401502
C       -0.4807587703    1.5688138349    2.3968128428
C        2.9680931387    0.8179220120    2.4721591384
C        1.4888200634   -0.3346306482    0.8694608672
N        0.2337508585    2.6365974886    2.0484574123
N        1.7969157183   -0.0530472267    2.2766570136
O        0.9424138276    0.7746118856    4.5166963334
O       -0.3992729843   -0.9403691618    3.1963611097
S        0.4534709593    0.2502967786    3.2422767819
H       -3.5830466559    2.3881433095    1.3407191959
H       -2.2766647713    4.4346631614    0.6830528926
H       -2.3424651689    0.4870796890    2.4677376794
H        0.1752106317    4.5006272811    1.1601042065
H        3.0845426281    1.0348843386    3.5325735843
H        3.8474462291    0.2662439138    2.1258041187
H        2.8770915702    1.7575121882    1.9144915345
H        0.6323135126   -1.0077658853    0.8071705694
H        1.2859772111    0.5822778429    0.2984213892
H        2.3520386318   -0.8410891641    0.4288084323
22   
Generated by ForceBalance from scan.xyz: Frame 17 of 24
C       -2.5268687111    2.4044203495    1.5327746004
C       -1.8295643041    3.5391879105    1.1120408535
C       -1.8276216583    1.3881635970    2.1904988010
C       -0.4540916945    3.6156906272    1.3599198806
C       -0.4633758456    1.5883670626    2.3931947115
C        3.0534067954    0.6878054206    2.5384228041
C        1.4756035397   -0.1370475718    0.8564055785
N        0.2279387699    2.6537134699    1.9946232042
N        1.8095535181   -0.0641762741    2.2860643254
O        1.0520429187    0.9507754592    4.4985457899
O       -0.3472173877   -0.8565380474    3.4004548041
S        0.5028975675    0.3312659556    3.2915742921
H       -3.5943235501    2.3097149495    1.3529096506
H       -2.3344627162    4.3514942697    0.5976549856
H       -2.3030155210    0.4776922108    2.5392431343
H        0.1218876350    4.4808103751    1.0375379178
H        3.2336469740    0.7489841186    3.6097143192
H        3.8683556582    0.1245910680    2.0739442224
H        3.0177465734    1.6993494180    2.1150251748
H        0.5281364052   -0.6637265653    0.7213031608
H        1.4176586371    0.8557939399    0.3921659308
H        2.2542024406   -0.7206966287    0.3571597187
22   
Generated by ForceBalance from scan.xyz: Frame 18 of 24
C       -2.5853334826    2.3472539350    1.4772374319
C       -1.9236117043    3.4929691204    1.0300103009
C       -1.8544614786    1.3686554604    2.1575559505
C       -0.5510700156    3.6189060972    1.2754628821
C       -0.4966244440    1.6153714941    2.3511525196
C        3.0823582066    0.4404535596    2.5929754652
C        1.4646020399    0.0334836853    0.8121603222
N        0.1607674863    2.6928592115    1.9301767800
N        1.7503877036   -0.0941383763    2.2490086742
O        1.1225852026    1.1211462381    4.4179013106
O       -0.3611943969   -0.7394850687    3.5609739530
S        0.4993836576    0.4157954619    3.2952243910
H       -3.6497139831    2.2160364703    1.3022822869
H       -2.4540338525    4.2776836881    0.4987468618
H       -2.3015467320    0.4546502778    2.5334149375
H       -0.0030927697    4.4952918223    0.9352581692
H        3.2663669193    0.3257246681    3.6591623379
H        3.8149315199   -0.1573706515    2.0427846190
H        3.1922934213    1.4975697035    2.3187639502
H        0.4584362323   -0.3321505014    0.5928177681
H        1.5655820081    1.0653911333    0.4542121404
H        2.1702172828   -0.6063373673    0.2746036933
22   
Generated by ForceBalance from scan.xyz: Frame 19 of 24
C       -2.6496352615    2.2835241911    1.4397949841
C       -2.0440898393    3.4466375150    0.9596238225
C       -1.8712666161    1.3582022409    2.1418026899
C       -0.6782972212    3.6438855906    1.1969921085
C       -0.5249423510    1.6724615960    2.3188583184
C        3.0739631152    0.1559411063    2.6596563975
C        1.5051558421    0.2241042899    0.7860027750
N        0.0787357960    2.7692661366    1.8706502043
N        1.6889414061   -0.0785340208    2.2122695714
O        1.2187267573    1.3281042883    4.3228918613
O       -0.3440831517   -0.5662456583    3.7212330960
S        0.5172379625    0.5432499278    3.3023265390
H       -3.7076276537    2.0986688376    1.2749683768
H       -2.6128090721    4.1918919729    0.4113764741
H       -2.2745458778    0.4369914932    2.5481004883
H       -0.1740128343    4.5375763561    0.8349356823
H        3.1858536336   -0.1290592799    3.7047593715
H        3.7162417398   -0.4891559415    2.0532560581
H        3.3851592022    1.2017989460    2.5406868773
H        0.4755330575    0.0221585037    0.4825542044
H        1.7609572839    1.2606499955    0.5331924850
H        2.1507802359   -0.4562323477    0.2232809434
22   
Generated by ForceBalance from scan.xyz: Frame 20 of 24
C       -2.6984055050    2.2066483305    1.4143337545
C       -2.1563536974    3.3893071614    0.9073570155
C       -1.8719017926    1.3428476410    2.1395877931
C       -0.8042380504    3.6676724671    1.1430752959
C       -0.5443178070    1.7330800279    2.3079708826
C        2.9885682034   -0.1421205853    2.7302200285
C        1.5687331460    0.3961429976    0.7996516892
N       -0.0019419579    2.8515401000    1.8368444778
N        1.6185621827   -0.0553026902    2.1967029304
O        1.3210940689    1.5327527507    4.2307278549
O       -0.3046772826   -0.3766028987    3.8815305144
S        0.5471546138    0.6788872959    3.3233703420
H       -3.7443810019    1.9602151737    1.2534669787
H       -2.7638357010    4.0892687885    0.3412295912
H       -2.2265507145    0.4133598507    2.5712137067
H       -0.3495638908    4.5804329990    0.7632520270
H        2.9712613373   -0.5466495990    3.7428607135
H        3.5386931671   -0.8394408148    2.0922937100
H        3.4997450361    0.8290477256    2.7454815460
H        0.5477853399    0.3441933317    0.4177202268
H        1.9576538777    1.4126137705    0.6562833363
H        2.1724769851   -0.3061426901    0.2178489203
22   
Generated by ForceBalance from scan.xyz: Frame 21 of 24
C       -2.2809780136    3.0070060054    1.8566405343
C       -1.5379902166    4.1718113833    2.0577743248
C       -1.6786590630    1.7705614125    2.1079695309
C       -0.2153554012    4.0571617466    2.5017531028
C       -0.3549850129    1.7859587804    2.5499461465
C        0.9087871270   -1.2800574244    0.7303508386
C        1.8490001921    0.9725693652    0.7594133718
N        0.3738537290    2.8802134181    2.7448509099
N        1.4311464169   -0.1844916607    1.5650179689
O        1.3206986890    0.3703438937    4.0754697468
O       -0.6555536859   -0.7929443020    2.9320571323
S        0.4472845891    0.1802054382    2.9248088891
H       -3.3121537528    3.0563179039    1.5173955156
H       -1.9683827879    5.1527202341    1.8787883592
H       -2.2069034944    0.8307793039    1.9931773021
H        0.3936169765    4.9431114093    2.6707098520
H        0.6334833536   -2.1297728562    1.3520195061
H        0.0386020704   -0.9814333075    0.1274523863
H        1.7184014940   -1.5820664061    0.0598069442
H        2.2553818968    1.7529506560    1.4033311381
H        2.6421305315    0.6353169784    0.0865884070
H        1.0289001140    1.3899173213    0.1563856150
22   
Generated by ForceBalance from scan.xyz: Frame 22 of 24
C       -2.3342335985    2.9040631398    1.8923931030
C       -1.6004737328    4.0891491627    1.9753072171
C       -1.6987087752    1.6949176824    2.1894948623
C       -0.2536756743    4.0205742583    2.3501421566
C       -0.3529003412    1.7549775256    2.5559110773
C        0.7270467263   -1.1074942229    0.6352587689
C        2.0539083429    0.9245751069    0.9053460900
N        0.3678886712    2.8699299797    2.6362779239
N        1.4201453668   -0.2183721758    1.5831305969
O        1.4425374175    0.4560040608    4.0482830667
O       -0.5692436736   -0.8057978843    3.0693585238
S        0.5064285645    0.1889006788    2.9645860182
H       -3.3833059344    2.9178207258    1.6092898428
H       -2.0562730391    5.0505997254    1.7577575993
H       -2.2167828744    0.7428949212    2.1649630050
H        0.3492640750    4.9234405085    2.4255388141
H        0.2873356549   -1.9491492836    1.1661865405
H       -0.0564684830   -0.5882229242    0.0624577030
H        1.4806430299   -1.4821157454   -0.0631666784
H        2.5194529146    1.5829420300    1.6391625353
H        2.8326849784    0.5300271070    0.2469221587
H        1.3387869325    1.5029478828    0.3039820552
22   
Generated by ForceBalance from scan.xyz: Frame 23 of 24
C       -2.4223030978    2.8396780049    1.9798816877
C       -1.6819703352    4.0211435258    1.9002550857
C       -1.7627828705    1.6505574306    2.3033995977
C       -0.3048269286    3.9688847093    2.1438046565
C       -0.3878915883    1.7263742705    2.5339303030
C        0.6142429330   -0.9059092825    0.5328881236
C        2.2616125538    0.8378151460    1.0396606743
N        0.3400892148    2.8379327156    2.4567647127
N        1.3961918154   -0.2251813027    1.5765044701
O        1.4796449968    0.5087057772    4.0092427319
O       -0.5263512160   -0.8253996481    3.1212550445
S        0.5160063401    0.1947129262    2.9616557534
H       -3.4939607399    2.8416280486    1.7997090797
H       -2.1555128457    4.9676087430    1.6565098040
H       -2.2800192084    0.7021296440    2.3948516493
H        0.3042957777    4.8690554377    2.0881997586
H        0.0241725778   -1.7059246222    0.9760300029
H       -0.0483922947   -0.2169873831   -0.0135243406
H        1.3243959852   -1.3400802676   -0.1763135953
H        2.7612817235    1.3553337893    1.8582074591
H        3.0186912125    0.3632381156    0.4086446084
H        1.7005751137    1.5673353567    0.4413133770
22   
Generated by ForceBalance from scan.xyz: Frame 24 of 24
C       -2.5152802428    2.8153265388    2.1759683996
C       -1.7707721890    3.9564747414    1.8693852437
C       -1.8398526691    1.6380645724    2.5100749774
C       -0.3739898756    3.8769306857    1.9039212927
C       -0.4454594311    1.6868373665    2.5251478169
C        0.5772606364   -0.7100728871    0.4549295563
C        2.4623565896    0.6916647138    1.2107743648
N        0.2869310356    2.7585512601    2.2286349152
N        1.3763477414   -0.2269890083    1.5888885824
O        1.4507358721    0.5223353764    4.0080933330
O       -0.5200477548   -0.8637313144    3.1400774788
S        0.4923803545    0.1816592197    2.9616179914
H       -3.6015690098    2.8388225532    2.1576775819
H       -2.2556522692    4.8919563079    1.6063514181
H       -2.3554569194    0.7173421175    2.7593823750
H        0.2382226581    4.7442150744    1.6642169495
H       -0.1611354813   -1.4295688079    0.8064348441
H        0.0737475514    0.1089721284   -0.0807153096
H        1.2555567357   -1.2143924484   -0.2387061195
H        2.9607847122    1.0538337013    2.1090064214
H        3.1812885612    0.1246528653    0.6116049857
H        2.0958450433    1.5471106880    0.6309035205
