43

C      0.38757   -1.29180    4.41822
C      0.04170   -1.46433    3.05764
C      1.71303   -1.69059    4.54596
C      1.15664   -1.97661    2.38600
C      1.21262   -2.34565    0.96450
C      3.54636   -2.55761    3.10298
C     -1.38238    1.46074   -1.52324
C     -2.02666   -0.88735   -1.23174
C     -0.50019    1.63018    1.77388
C      1.90677    1.25477    1.58751
C      1.96965    1.58424   -1.68923
C      2.07763   -0.81174   -2.18398
N      0.39034   -1.64291    0.14142
N      2.17294   -2.11584    3.32610
N     -1.17291    0.21736   -0.78197
N      0.59386    1.12008    0.94379
N      1.61682    0.23217   -1.25893
P      0.36516   -0.10302   -0.18565
S      2.13838   -3.63399    0.40635
H     -0.24633   -0.93520    5.22000
H     -0.91845   -1.29138    2.59173
H      2.36383   -1.69676    5.41047
H      3.59001   -3.63869    2.96466
H      3.95774   -2.08668    2.20900
H      4.14032   -2.26370    3.97174
H     -0.79987    2.27281   -1.08471
H     -2.44040    1.73948   -1.46716
H     -1.10859    1.36504   -2.58467
H     -1.81287   -1.77858   -0.64420
H     -1.86566   -1.12121   -2.29415
H     -3.07612   -0.60259   -1.09232
H     -1.46154    1.38703    1.32240
H     -0.41443    2.72147    1.85664
H     -0.46309    1.19944    2.78120
H      2.68270    0.80790    0.96514
H      1.91378    0.76258    2.56763
H      2.14156    2.31794    1.72393
H      1.61034    2.32242   -0.97252
H      1.54944    1.81800   -2.67816
H      3.06121    1.67363   -1.75639
H      1.85099   -1.79991   -1.78607
H      3.16423   -0.72882   -2.30385
H      1.61134   -0.69922   -3.17414
