25

C      4.82871    2.11736   -5.45759
C      4.09128    1.46088   -4.51461
C      5.89738    0.17764   -4.43867
C      1.88737    0.43884   -4.10931
C      1.33449   -1.42574   -5.45667
C      5.18153   -2.39633   -2.34142
C      2.67429    1.74524   -4.09531
N      4.71903    0.37832   -3.92721
N      6.69405   -0.90143   -4.05396
O      1.38464   -0.08023   -3.13276
O      4.91364   -2.61643   -4.97197
O      7.11250   -3.37508   -3.92901
O      1.85912   -0.08378   -5.35140
S      6.36896    1.32587   -5.68117
S      5.95759   -2.47568   -3.95815
H      4.56818    2.99431   -6.03511
H      1.31998   -1.64736   -6.52332
H      0.32973   -1.47994   -5.03271
H      2.00057   -2.11766   -4.93631
H      4.69224   -3.36092   -2.19322
H      5.96315   -2.23249   -1.60004
H      4.45912   -1.58034   -2.36183
H      2.63295    2.13928   -3.07734
H      2.21505    2.46548   -4.77719
H      7.60707   -0.98829   -4.49575
