48

C      5.30903   -1.00231   -1.34268
C      5.49238   -2.03209    0.82838
C      3.63967    0.18596    1.75379
C      2.57520   -0.09250   -0.39026
C      6.40065   -1.74456   -1.79205
C      6.58133   -2.78909    0.39313
C      2.55014    0.93131    2.20309
C      1.47274    0.64444    0.04541
C      8.62625   -6.57755   -1.44226
C      9.35144   -7.33068    0.75295
C     -3.78349    1.49521   -0.23765
C     -2.77069    1.16825    1.94854
C      8.65227   -7.89882   -1.89693
C      9.36780   -8.65121    0.30018
C     -5.00426    1.02751    0.25226
C     -3.99575    0.70929    2.44019
C      4.83549   -1.12870   -0.02466
C      3.67545   -0.33761    0.44919
C      7.03081   -2.63255   -0.91912
C      1.47382    1.15689    1.34385
C      8.98345   -6.30510   -0.11999
C     -2.67814    1.56398    0.61248
C      9.02086   -8.92462   -1.02485
C     -5.10152    0.64102    1.59091
O      8.08330   -3.38477   -1.45908
O      0.39152    1.86483    1.88473
O      8.93926   -5.01907    0.43035
O     -1.48071    1.99016    0.02661
S      9.42697   -3.71058   -0.50702
S     -0.43396    2.96006    0.91672
Cl     9.04460  -10.58404   -1.60054
Cl    -6.63667    0.05646    2.21321
H      4.84188   -0.28947   -2.01633
H      5.12448   -2.17768    1.84017
H      4.48861    0.03998    2.41573
H      2.55932   -0.51671   -1.39029
H      6.77846   -1.63632   -2.80439
H      7.05762   -3.50298    1.05625
H      2.52770    1.35070    3.20454
H      0.61959    0.79878   -0.60615
H      8.32217   -5.77711   -2.10759
H      9.62293   -7.08791    1.77575
H     -3.68042    1.80889   -1.27195
H     -1.90194    1.20587    2.59638
H      8.37658   -8.12833   -2.92126
H      9.65466   -9.45750    0.96754
H     -5.87200    0.97172   -0.39713
H     -4.08494    0.39676    3.47571
