43

C     -1.08786   -6.31179   -0.44863
C     -0.89096   -4.91669   -0.49513
C     -0.17358   -6.81063    0.47306
C      0.14424   -4.58596    0.39117
C      0.67498   -3.23794    0.60788
C      1.59125   -5.99414    2.00198
C     -2.13660   -0.70752   -1.35121
C     -0.63060    1.13182   -1.90167
C     -0.36833   -0.59088    2.58505
C      0.02619    1.54202    1.41735
C      2.22213   -0.78715   -1.91020
C      2.83240    0.18160    0.25545
N     -0.09993   -2.29007    0.03701
N      0.57219   -5.78030    0.97758
N     -0.75929   -0.20551   -1.32502
N     -0.01571    0.08491    1.33711
N      1.74575   -0.20880   -0.64680
P      0.25808   -0.73239   -0.08971
S      2.11418   -2.93078    1.46974
H     -1.80169   -6.89781   -1.01326
H     -1.40994   -4.19365   -1.10730
H     -0.00374   -7.82453    0.81098
H      2.58566   -5.76183    1.61990
H      1.40812   -5.35792    2.86856
H      1.54232   -7.04380    2.30207
H     -2.16081   -1.72849   -0.97444
H     -2.49921   -0.70114   -2.38547
H     -2.80955   -0.08108   -0.74562
H      0.40928    1.45840   -1.87625
H     -1.25173    1.87410   -1.37724
H     -0.95575    1.10155   -2.94828
H     -0.52751   -1.65228    2.40783
H     -1.29342   -0.15916    2.98907
H      0.43325   -0.48199    3.32584
H      0.43179    1.97234    0.50120
H      0.67245    1.85830    2.24652
H     -0.97660    1.95871    1.58482
H      1.37804   -1.02510   -2.55888
H      2.79881   -1.70299   -1.72737
H      2.86214   -0.05989   -2.42316
H      2.44620    0.38977    1.25140
H      3.31982    1.08284   -0.13937
H      3.56680   -0.62413    0.35162
