30

C      2.88742    0.10021    0.29786
C      6.94483   -3.36009    8.02335
C      2.45398   -1.22180    0.45181
C      2.85609    0.99122    1.37619
C      6.09386   -2.30815    8.38492
C      7.05269   -3.76204    6.68759
C      1.98789   -1.66520    1.68961
C      2.39734    0.56621    2.62351
C      5.34115   -1.65059    7.41134
C      6.30666   -3.11557    5.69933
C      1.97193   -0.75861    2.75326
C      5.46629   -2.06893    6.08361
N      2.93712   -2.10195    5.09265
O      1.18625   -0.21489    5.24003
O      0.54000   -2.46341    4.20004
O      4.20825    0.13162    5.25286
O      5.03481   -1.55287    3.51534
F      3.11515   -3.34609    4.43121
S      1.44575   -1.33482    4.35001
S      4.50785   -1.23491    4.83809
H      3.25162    0.43766   -0.66879
H      7.52712   -3.86811    8.78733
H      2.47889   -1.90693   -0.39059
H      3.19415    2.01554    1.24959
H      6.01648   -2.00033    9.42361
H      7.71608   -4.57737    6.41408
H      1.64320   -2.68368    1.83347
H      2.38113    1.23106    3.47999
H      4.67760   -0.83041    7.66633
H      6.37459   -3.40398    4.65558
