48

C      4.49176   -1.65684   -1.29822
C      4.85606   -3.19124    0.52629
C      3.12188   -1.28516    2.12879
C      1.85707   -1.05413    0.08788
C      5.53680   -2.24820   -2.00946
C      5.89742   -3.79663   -0.17651
C      2.08603   -0.69198    2.84982
C      0.81630   -0.45150    0.79622
C      8.96116   -0.72198   -3.06151
C     10.63080   -2.41062   -3.57548
C     -0.74691    3.12525    0.47461
C     -1.94565    3.77637    2.48480
C      9.28348   -0.04015   -4.23783
C     10.94926   -1.73607   -4.75560
C     -1.81517    3.56733   -0.31015
C     -3.01805    4.21115    1.70379
C      4.13455   -2.11296   -0.01778
C      3.02865   -1.47811    0.73827
C      6.23033   -3.31735   -1.44368
C      0.93741   -0.27893    2.17439
C      9.63954   -1.89675   -2.73825
C     -0.81865    3.23697    1.86289
C     10.27316   -0.55573   -5.07674
C     -2.94390    4.10350    0.31231
O      7.22815   -3.90705   -2.23265
O     -0.16439    0.27090    2.84490
O      9.31724   -2.49962   -1.51667
O      0.30845    2.83545    2.58927
S      8.75690   -4.08698   -1.56074
S      0.09251    1.65139    3.76679
Cl    10.67669    0.29230   -6.56086
Cl    -4.29359    4.65233   -0.66833
H      3.97071   -0.80746   -1.73118
H      4.57781   -3.58537    1.49966
H      4.02666   -1.58182    2.65176
H      1.74586   -1.21770   -0.98036
H      5.82552   -1.89285   -2.99414
H      6.44299   -4.63282    0.25013
H      2.17259   -0.53621    3.92100
H     -0.09596   -0.13169    0.30148
H      8.19453   -0.35017   -2.38867
H     11.14398   -3.33024   -3.31136
H      0.14431    2.70091    0.02262
H     -1.98783    3.85029    3.56713
H      8.76764    0.87742   -4.50219
H     11.71915   -2.11952   -5.41748
H     -1.77361    3.49015   -1.39193
H     -3.90134    4.63528    2.17043
