35

C      2.97580   -0.50762    3.59674
C      3.17296   -1.36665    4.69894
C      1.70810   -0.32938    3.06799
C     -0.73685   -0.89873    3.16883
C     -3.79044   -3.21455    5.26201
C      2.10753   -2.05033    5.27714
C     -4.70665   -3.97572    5.97193
C     -1.74920   -1.59745    3.77855
C     -1.99487   -4.03193    6.70503
C      0.60542   -1.01040    3.63382
C     -2.42215   -3.22639    5.61177
C      0.83697   -1.86228    4.73560
C     -4.28829   -4.77175    7.05154
C     -2.89909   -4.79501    7.41988
C     -1.47258   -2.44156    4.88142
C     -6.49644   -5.57805    7.50418
C     -1.24116   -5.67098    8.89520
O     -0.20435   -2.54174    5.31445
O     -5.08678   -5.53558    7.79359
O     -2.60505   -5.58957    8.46715
H      3.82410    0.01367    3.16465
H      4.17161   -1.49807    5.10449
H      1.54639    0.32979    2.21971
H     -0.95610   -0.25259    2.32277
H     -4.15489   -2.61503    4.43643
H      2.24504   -2.71384    6.12486
H     -5.75122   -3.95201    5.68653
H     -2.76635   -1.50946    3.42232
H     -0.94746   -4.04098    6.97318
H     -6.91885   -6.25913    8.24067
H     -6.67032   -5.96583    6.49597
H     -6.94215   -4.58522    7.61682
H     -1.24060   -6.36113    9.73760
H     -0.87536   -4.69099    9.22206
H     -0.60385   -6.06552    8.09573
