36

C      0.03602   -2.61010    0.16442
C     -0.58407   -4.69217    7.21295
C      5.25187   -0.53050    5.06237
C     -0.43247   -1.35767    0.57471
C      0.69734   -3.44171    1.07604
C      0.71328   -4.68297    6.68828
C     -1.45880   -3.63772    6.92933
C      4.41702   -0.70126    6.17291
C      4.71388   -0.58986    3.77291
C     -0.23728   -0.93015    1.89155
C      0.89064   -3.01928    2.39314
C      1.13401   -3.62357    5.87976
C     -1.03906   -2.57824    6.12041
C      3.05212   -0.93437    5.99228
C      3.34685   -0.82010    3.59149
C      0.42915   -1.76000    2.80301
C      0.25869   -2.56530    5.58865
C      2.50595   -1.00143    4.69947
N     -0.19033    0.15459    4.64753
P      0.68889   -1.15041    4.49594
H     -0.11626   -2.94031   -0.86017
H     -0.90949   -5.51543    7.84398
H      6.31505   -0.35238    5.20220
H     -0.95113   -0.71294   -0.13033
H      1.05710   -4.41841    0.76280
H      1.39812   -5.49698    6.91271
H     -2.46583   -3.64038    7.33884
H      4.82916   -0.65509    7.17776
H      5.35765   -0.45683    2.90713
H     -0.59504    0.03509    2.23716
H      1.39715   -3.67401    3.09645
H      2.14880   -3.61664    5.49112
H     -1.70582   -1.74962    5.89434
H      2.41245   -1.07291    6.86078
H      2.93651   -0.86240    2.58664
H     -0.03554    0.68125    5.50527
