48

C      5.08683   -1.71760   -0.76460
C      3.54136   -3.54929   -1.01509
C      2.01255   -2.22759    1.24937
C      2.67559   -0.15513    0.21370
C      6.02605   -2.39809   -1.53869
C      4.47323   -4.24913   -1.78347
C      1.07378   -1.55284    2.03144
C      1.73711    0.53404    0.98120
C      7.98180   -7.27267   -2.43993
C      6.46191   -8.96639   -3.29634
C     -1.70561   -1.27212    6.59759
C     -0.45069    0.67644    5.86245
C      8.86990   -8.27756   -2.04687
C      7.34565   -9.96979   -2.89460
C     -1.61765   -0.83580    7.92089
C     -0.37145    1.11698    7.18632
C      3.82602   -2.27683   -0.49078
C      2.82956   -1.54800    0.32951
C      5.71149   -3.66014   -2.04454
C      0.94051   -0.17109    1.88425
C      6.78629   -7.62771   -3.06845
C     -1.12483   -0.51346    5.57969
C      8.54654   -9.61620   -2.27517
C     -0.95338    0.35962    8.20447
O      6.72714   -4.30599   -2.76354
O      0.05934    0.59543    2.65976
O      5.82080   -6.68943   -3.45059
O     -1.21129   -1.04880    4.28942
S      6.32004   -5.22407   -4.10835
S     -1.47076   -0.01071    2.99161
Cl     9.66417  -10.87470   -1.77236
Cl    -0.84617    0.91623    9.86714
H      5.34693   -0.74740   -0.35091
H      2.56753   -3.99679   -0.83730
H      2.13579   -3.29820    1.38661
H      3.27059    0.39388   -0.51071
H      7.00177   -1.96976   -1.74797
H      4.23922   -5.23399   -2.17276
H      0.47098   -2.08910    2.75630
H      1.60435    1.60715    0.88072
H      8.21627   -6.23134   -2.24895
H      5.52459   -9.21149   -3.78638
H     -2.22219   -2.19357    6.34685
H      0.01422    1.24879    5.06732
H      9.80292   -8.01923   -1.55628
H      7.10713  -11.01415   -3.06843
H     -2.06759   -1.41419    8.72140
H      0.14919    2.03917    7.42389
