24

C      0.95473   -0.77057   -2.69623
C      0.53301   -1.76444   -3.53247
C      2.71772   -2.27785   -3.62752
C     -1.11206   -3.56616   -3.66212
C     -0.38884   -5.63820   -4.56456
C      3.17210   -3.90412   -6.34599
C     -0.90600   -2.07721   -3.88780
N      1.50242   -2.58471   -4.05933
N      3.90558   -2.83657   -3.89671
O     -1.45341   -4.06621   -2.60501
O      3.06466   -5.31058   -4.11207
O      5.32425   -4.59532   -4.97662
O     -0.80325   -4.26905   -4.77412
S      2.70173   -0.84823   -2.52316
S      3.91002   -4.25131   -4.71953
H      0.35785   -0.04242   -2.16221
H     -0.43557   -6.11348   -5.54620
H     -1.05578   -6.14151   -3.86107
H      0.64211   -5.63086   -4.19805
H      3.20811   -4.83715   -6.91327
H      2.14615   -3.57097   -6.18800
H      3.77525   -3.13483   -6.83227
H     -1.58987   -1.51515   -3.24895
H     -1.09748   -1.84042   -4.93992
