48

C      3.89023   -3.04276   -1.31367
C      4.63902   -0.78924   -0.90329
C      2.38082   -0.68915    1.12326
C      1.15853   -2.00413   -0.48627
C      5.07434   -3.31639   -1.99753
C      5.83413   -1.04859   -1.57629
C      1.19617   -0.42285    1.81088
C     -0.03426   -1.73989    0.18667
C     10.33185   -2.34909   -1.90012
C     11.06837   -0.04525   -2.14956
C      0.12306   -1.68483    5.29612
C     -2.26914   -1.61456    5.71685
C     11.59212   -2.69148   -1.40260
C     12.32403   -0.38661   -1.64350
C      0.36150   -1.07501    6.53049
C     -2.03459   -0.99809    6.94734
C      3.64752   -1.77449   -0.75711
C      2.38599   -1.48684   -0.03391
C      6.03837   -2.31547   -2.12559
C     -0.00467   -0.94807    1.33477
C     10.08409   -1.02717   -2.27624
C     -1.18757   -1.95323    4.90263
C     12.57740   -1.71042   -1.27728
C     -0.72063   -0.73382    7.34394
O      7.22480   -2.68179   -2.77647
O     -1.16294   -0.59256    2.04091
O      8.83787   -0.59126   -2.74086
O     -1.36395   -2.62084    3.68510
S      7.97153   -1.57551   -3.79460
S     -2.22639   -1.81411    2.48344
Cl    14.15805   -2.14592   -0.64685
Cl    -0.42694    0.04091    8.89256
H      3.15449   -3.83303   -1.19419
H      4.46915    0.20597   -0.50213
H      3.31746   -0.29969    1.51233
H      1.12957   -2.59561   -1.39710
H      5.26550   -4.29612   -2.42518
H      6.59151   -0.27830   -1.67319
H      1.18734    0.18240    2.71245
H     -0.97609   -2.14041   -0.17550
H      9.55478   -3.10082   -1.98413
H     10.84575    0.97421   -2.44945
H      0.94140   -1.95946    4.63767
H     -3.28294   -1.82574    5.39035
H     11.80158   -3.71406   -1.10528
H     13.09934    0.36611   -1.54308
H      1.37548   -0.86218    6.85368
H     -2.86298   -0.72994    7.59519
