48

C      4.36021   -1.57979   -1.61148
C      4.65617   -3.09927    0.24075
C      2.71525   -1.25861    1.66856
C      1.56164   -1.18461   -0.45176
C      5.53430   -2.05404   -2.19718
C      5.82738   -3.58550   -0.33775
C      1.59888   -0.71010    2.30087
C      0.44024   -0.63396    0.16862
C      8.39065   -2.53939    1.88841
C      7.57518   -0.75367    0.46022
C     -0.39927   -2.10379    5.26022
C     -2.51113   -0.90982    5.38391
C      7.56896   -2.09351    2.92509
C      6.74100   -0.31583    1.49029
C     -0.19832   -1.89911    6.62753
C     -2.30863   -0.69661    6.74887
C      3.91499   -2.07501   -0.37310
C      2.71487   -1.50769    0.28554
C      6.27255   -3.03657   -1.53893
C      0.47039   -0.39960    1.54371
C      8.37855   -1.87739    0.65951
C     -1.55358   -1.61208    4.65067
C      6.73954   -0.99129    2.71198
C     -1.15422   -1.19307    7.36014
O      7.50961   -3.47309   -2.04576
O     -0.60454    0.20465    2.21111
O      9.20952   -2.43519   -0.32374
O     -1.71500   -1.90787    3.29181
S      8.74872   -2.33535   -1.93956
S     -2.05923   -0.63707    2.24365
Cl     5.67277   -0.44940    4.00172
Cl    -0.90230   -0.92280    9.07726
H      3.80673   -0.78319   -2.10097
H      4.31667   -3.51636    1.18425
H      3.60450   -1.46807    2.25468
H      1.53216   -1.38721   -1.51888
H      5.89770   -1.64117   -3.13381
H      6.41916   -4.35474    0.14770
H      1.59787   -0.50146    3.36644
H     -0.45367   -0.39900   -0.40176
H      9.02703   -3.40985    2.01453
H      7.56108   -0.24971   -0.49945
H      0.32624   -2.64536    4.66115
H     -3.40056   -0.52590    4.89422
H      7.56348   -2.60662    3.88145
H      6.09025    0.53910    1.33831
H      0.69417   -2.27728    7.11574
H     -3.04377   -0.15383    7.33442
