14

C      0.34009   -3.25424    0.80024
C      0.38187   -2.01294    0.20400
C      0.80252   -0.70649    0.83350
N     -0.03931   -4.28246   -0.02513
N     -0.30322   -3.93300   -1.22947
N      2.03379    0.14290   -1.02720
N      2.08973   -0.18079    0.36791
S     -0.08764   -2.21729   -1.43425
H      0.57028   -3.46838    1.83820
H      0.05082    0.06465    0.65015
H      0.87876   -0.84989    1.91638
H      2.60777    0.97021   -1.17430
H      2.40375   -0.60868   -1.61086
H      2.82496   -0.86155    0.56237
