48

C      4.26175   -1.34399   -1.65916
C      3.91731   -3.60220   -0.87878
C      2.62828   -2.28784    1.53428
C      1.76930   -0.69269   -0.05719
C      5.16052   -1.80664   -2.62059
C      4.81759   -4.07807   -1.83263
C      1.73224   -1.82583    2.49812
C      0.86175   -0.22638    0.89453
C      5.54291   -8.05010   -4.89989
C      7.36313   -6.66719   -4.07131
C     -2.97944   -0.64669    0.92718
C     -4.00584   -0.34885    3.10941
C      6.33439   -9.19008   -4.75190
C      8.15722   -7.80923   -3.93125
C     -3.92654    0.21047    0.36092
C     -4.94874    0.51434    2.54807
C      3.62266   -2.23119   -0.77435
C      2.66557   -1.73306    0.24218
C      5.43225   -3.17221   -2.69808
C      0.85269   -0.79450    2.16810
C      6.06244   -6.79792   -4.56335
C     -3.03014   -0.92257    2.29315
C      7.63952   -9.05988   -4.27080
C     -4.90132    0.78624    1.17787
O      6.37913   -3.63295   -3.62333
O     -0.04362   -0.23677    3.09071
O      5.17924   -5.72129   -4.69482
O     -2.09492   -1.83621    2.79357
S      5.78021   -4.20698   -5.09484
S     -1.02633   -1.27690    3.96948
Cl     8.64098  -10.49138   -4.08627
Cl    -6.08897    1.87089    0.47240
H      4.07578   -0.27688   -1.57686
H      3.41580   -4.31026   -0.22509
H      3.33272   -3.07035    1.80198
H      1.75539   -0.26514   -1.05585
H      5.66293   -1.12134   -3.29718
H      5.03775   -5.13737   -1.91798
H      1.71699   -2.25812    3.49384
H      0.15774    0.56812    0.66576
H      4.52722   -8.12024   -5.27702
H      7.75361   -5.69529   -3.79153
H     -2.20556   -1.10780    0.32125
H     -4.02512   -0.57022    4.17224
H      5.94365  -10.16792   -5.01458
H      9.16996   -7.72463   -3.55026
H     -3.90376    0.43298   -0.70109
H     -5.71665    0.96768    3.16666
