30

C     -1.94133   -2.77882    9.89505
C      6.73649   -0.14558   11.10201
C     -1.68440   -1.69070    9.05173
C     -1.08787   -3.88752    9.90828
C      5.72465    0.70915   10.64827
C      7.00758   -1.34569   10.43495
C     -0.56647   -1.70197    8.21629
C      0.03456   -3.91567    9.07726
C      4.97345    0.36821    9.52229
C      6.26418   -1.70375    9.30865
C      0.27235   -2.81922    8.24601
C      5.26070   -0.83542    8.87376
N      2.83228   -1.91598    8.27041
O      2.17330   -4.21044    7.02945
O      1.50341   -1.93336    6.05510
O      3.82274   -0.05858    6.77049
O      5.00031   -2.33376    6.69867
F      3.32292   -2.90313    9.17617
S      1.69802   -2.84245    7.17635
S      4.32342   -1.26214    7.41896
H     -2.81394   -2.76347   10.54250
H      7.31855    0.12681   11.97834
H     -2.35496   -0.83625    9.04236
H     -1.29600   -4.73031   10.56111
H      5.52349    1.64159   11.16772
H      7.79632   -2.00244   10.79034
H     -0.34962   -0.87491    7.54763
H      0.70749   -4.76668    9.06104
H      4.19183    1.01933    9.14424
H      6.45456   -2.62662    8.77069
