48

C      4.29417   -2.49281   -3.38601
C      4.20470   -4.03426   -1.52889
C      3.34001   -1.59291    0.05522
C      2.02929   -1.07380   -1.89955
C      5.10138   -3.38388   -4.09168
C      5.00986   -4.93426   -2.22673
C      2.58560   -0.70160    0.81431
C      1.25156   -0.19322   -1.14720
C      8.12254   -1.72409   -3.94027
C      7.75136   -2.89009   -1.84492
C     -0.11859   -2.83061    0.71771
C      0.66156   -2.79338    3.01744
C      7.61252   -0.54985   -3.38218
C      7.22634   -1.72208   -1.29171
C      0.60864   -3.99929    0.48542
C      1.38819   -3.96428    2.79100
C      3.85671   -2.79017   -2.08501
C      3.06723   -1.81008   -1.30637
C      5.47887   -4.58397   -3.49234
C      1.52086   -0.03102    0.21140
C      8.16508   -2.89181   -3.17764
C     -0.07168   -2.22766    1.97407
C      7.14533   -0.56388   -2.06672
C      1.36290   -4.54971    1.52325
O      6.38949   -5.40022   -4.18885
O      0.63723    0.80843    0.91105
O      8.62123   -4.03818   -3.84911
O     -0.77959   -1.02916    2.15403
S      7.91091   -5.51895   -3.47198
S      0.16932    0.33553    2.45495
Cl     6.42322    0.88174   -1.38121
Cl     2.30482   -6.00606    1.22949
H      4.05722   -1.52808   -3.82528
H      3.83602   -4.30652   -0.54466
H      4.16119   -2.12461    0.52710
H      1.79143   -1.22889   -2.94840
H      5.49230   -3.13502   -5.07294
H      5.29527   -5.88438   -1.78473
H      2.79486   -0.56156    1.86923
H      0.41422    0.34001   -1.58717
H      8.45684   -1.75293   -4.97276
H      7.78452   -3.80101   -1.25824
H     -0.68804   -2.36279   -0.07812
H      0.67963   -2.31380    3.99139
H      7.55438    0.35865   -3.97306
H      6.86839   -1.71670   -0.26750
H      0.60607   -4.46263   -0.49567
H      1.96902   -4.41528    3.58923
