48

C      4.89591   -2.84163   -1.53291
C      4.96800   -3.67840    0.72477
C      2.70839   -1.75580    1.27540
C      1.98813   -2.24181   -0.97514
C      6.10841   -3.46711   -1.81637
C      6.17866   -4.31464    0.45375
C      1.46360   -1.19612    1.55811
C      0.74186   -1.67702   -0.70702
C      4.94640   -6.89223   -1.31113
C      5.16758   -6.39542   -3.67753
C      0.07114   -3.75380    3.52972
C     -0.28174   -4.35090    1.20466
C      3.59336   -6.55782   -1.36122
C      3.81233   -6.06206   -3.73380
C      1.16267   -4.62274    3.59177
C      0.81568   -5.20939    1.26069
C      4.29540   -2.94245   -0.26599
C      2.98877   -2.30372    0.01217
C      6.73187   -4.22178   -0.82286
C      0.48321   -1.17678    0.56857
C      5.72650   -6.78809   -2.46100
C     -0.63250   -3.60936    2.33293
C      3.04310   -6.13171   -2.56983
C      1.53565   -5.33194    2.44902
O      7.92290   -4.94119   -1.03294
O     -0.78122   -0.67030    0.91998
O      7.09579   -7.06990   -2.34277
O     -1.68344   -2.67922    2.35664
S      8.11421   -5.73109   -2.50326
S     -2.01870   -1.81242    0.95165
Cl     1.34755   -5.66011   -2.62651
Cl     2.94098   -6.39250    2.50419
H      4.41885   -2.24907   -2.30812
H      4.51616   -3.80605    1.70348
H      3.47137   -1.76445    2.04801
H      2.16692   -2.68254   -1.95097
H      6.54735   -3.39340   -2.80546
H      6.67716   -4.91969    1.20496
H      1.23320   -0.79808    2.54123
H     -0.03775   -1.66493   -1.46308
H      5.40782   -7.19389   -0.37696
H      5.79034   -6.32598   -4.56423
H     -0.22523   -3.16704    4.39365
H     -0.82587   -4.23350    0.27475
H      2.99440   -6.60798   -0.46004
H      3.36170   -5.74350   -4.66832
H      1.72545   -4.73226    4.51330
H      1.10080   -5.76606    0.37592
