48

C      3.89591   -0.55939   -2.71942
C      4.71386   -0.65494   -0.45487
C      1.81410   -0.22889    0.33340
C      1.72032    1.22809   -1.58369
C      5.09733   -1.09105   -3.19098
C      5.92360   -1.17924   -0.90907
C      0.60666    0.28948    0.80434
C      0.50825    1.75017   -1.13314
C      7.63585   -4.03176   -6.86567
C      7.95620   -4.55085   -4.51194
C     -2.08913    3.19338    3.31719
C     -2.53235    1.46984    4.97401
C      7.94191   -5.35138   -7.20362
C      8.27162   -5.86911   -4.85221
C     -2.33589    4.17452    4.28135
C     -2.76928    2.45080    5.93874
C      3.67828   -0.33206   -1.34966
C      2.39431    0.22625   -0.86303
C      6.10756   -1.39218   -2.27594
C     -0.04172    1.27492    0.05812
C      7.64676   -3.64115   -5.52540
C     -2.19711    1.84710    3.67233
C      8.26127   -6.26018   -6.19229
C     -2.67282    3.79789    5.58268
O      7.32662   -1.97419   -2.65100
O     -1.23333    1.88524    0.47480
O      7.27324   -2.31693   -5.26905
O     -1.92396    0.80235    2.78210
S      8.07554   -1.46141   -4.06317
S     -2.42707    0.94123    1.18297
Cl     8.65125   -7.92052   -6.61297
Cl    -2.97685    5.03555    6.79164
H      3.09988   -0.35400   -3.42966
H      4.58793   -0.46157    0.60669
H      2.30178   -1.01726    0.89983
H      2.15672    1.61954   -2.49825
H      5.23711   -1.28676   -4.24854
H      6.73077   -1.41334   -0.22135
H      0.17684   -0.06896    1.73340
H     -0.01261    2.52573   -1.68678
H      7.39065   -3.30202   -7.63127
H      7.94331   -4.24305   -3.47221
H     -1.80878    3.47672    2.30869
H     -2.60770    0.41511    5.22026
H      7.93997   -5.66752   -8.24181
H      8.51347   -6.58935   -4.07715
H     -2.25605    5.22549    4.02247
H     -3.03419    2.17132    6.95338
