24   
Generated by ForceBalance from scan.xyz: Frame 1 of 24
C        1.9161469271   -1.1813828529   -0.0939260494
C        3.0244220460   -0.8483904044    0.6936822328
C        0.7004224820   -1.4972311202    0.5191301619
C        2.9229110010   -0.8324561282    2.0857636182
C        0.5992689173   -1.4787347118    1.9135248816
C        1.7059779262   -1.1500694283    2.7100621948
C        2.5657278769   -2.0203504617    4.9804024966
C        0.1748169822    1.3613293965    4.2627470111
C        1.5667197386   -1.1490779305    4.2105345929
O        1.5111561642    0.4575650165    6.3654944275
O        2.8442220001    1.2539130643    4.3394450364
S        1.6682516278    0.5678324591    4.9026946110
H        2.0003176461   -1.1934856389   -1.1774658688
H        3.9697974709   -0.5949381539    0.2212716001
H       -0.1654055269   -1.7586935547   -0.0835726220
H        3.7794320248   -0.5464496971    2.6869296403
H       -0.3483118369   -1.7288038755    2.3866521046
H        3.5949397185   -1.6955371370    4.8080230360
H        2.3636562312   -1.9816323798    6.0524568309
H        2.4709089472   -3.0523752654    4.6313519445
H        0.1987452284    2.3856606439    4.6393003154
H        0.2009990409    1.3525119424    3.1724293868
H       -0.6973760576    0.8340566664    4.6513135276
H        0.5521187597   -1.4575041782    4.4835122470
24   
Generated by ForceBalance from scan.xyz: Frame 2 of 24
C        1.9965987331   -1.2155917435   -0.1529187542
C        3.1136087650   -0.9363390132    0.6435824903
C        0.7552766523   -1.4407663944    0.4481191012
C        2.9933999069   -0.8843272325    2.0325345134
C        0.6369312911   -1.3872474699    1.8404513906
C        1.7514945037   -1.1129766554    2.6459460935
C        2.5349476299   -1.9718393509    4.9517808791
C        0.0950011359    1.3520869074    4.4766700413
C        1.5960004356   -1.0713848355    4.1423683560
O        1.8921685785    0.5828797976    6.2575515907
O        2.7251498196    1.4224537903    3.9954760229
S        1.7410498833    0.6708491343    4.7922083326
H        2.0941403684   -1.2553698357   -1.2346689500
H        4.0790200482   -0.7513761892    0.1800310796
H       -0.1171027319   -1.6596532530   -0.1620619327
H        3.8591397444   -0.6399922413    2.6391583084
H       -0.3304948759   -1.5697802285    2.3046024593
H        3.5840801651   -1.7118314334    4.7886697048
H        2.3231707670   -1.8896040174    6.0188236691
H        2.3873421832   -3.0062109011    4.6281591075
H        0.1397432153    2.3987262251    4.7834927768
H       -0.1258502235    1.2783874953    3.4102801393
H       -0.6313963113    0.8077037576    5.0809958904
H        0.5652891762   -1.3343647697    4.4034745221
24   
Generated by ForceBalance from scan.xyz: Frame 3 of 24
C        2.0973704013   -1.2951273058   -0.2031793560
C        3.1975862550   -1.0310856838    0.6214588594
C        0.8314283924   -1.4619719032    0.3642678252
C        3.0362391822   -0.9373243090    2.0036925677
C        0.6717463327   -1.3664999214    1.7502159010
C        1.7694152892   -1.1086962749    2.5829222346
C        2.4545898270   -1.9384295705    4.9251327742
C        0.0405539451    1.3276977956    4.7243586176
C        1.5719263535   -1.0233295207    4.0715001467
O        2.2203951848    0.6947737239    6.0780329237
O        2.4909090649    1.5456104236    3.6870337677
S        1.7540436605    0.7458333141    4.6787656798
H        2.2269477560   -1.3671888728   -1.2799040372
H        4.1823738779   -0.8897575146    0.1841476586
H       -0.0286917441   -1.6675846478   -0.2675388576
H        3.8920401496   -0.7061799595    2.6302421733
H       -0.3154523000   -1.5035245587    2.1877564841
H        3.5164346436   -1.7201199169    4.7876120546
H        2.2224027448   -1.8268208335    5.9850488835
H        2.2766619931   -2.9734023769    4.6182115906
H        0.0872615836    2.3787158731    5.0156954010
H       -0.3981119012    1.2307011121    3.7292684741
H       -0.5080072635    0.7490706444    5.4685540601
H        0.5254016184   -1.2473871477    4.3032117475
24   
Generated by ForceBalance from scan.xyz: Frame 4 of 24
C        2.1960427080   -1.3956320890   -0.2681930103
C        3.2648240243   -1.1043234684    0.5877466014
C        0.9075040156   -1.5349537831    0.2541202941
C        3.0470235872   -0.9576568981    1.9574557803
C        0.6920424615   -1.3842887037    1.6274261091
C        1.7573023377   -1.0999802799    2.4916696192
C        2.3454149920   -1.8754550733    4.8633701770
C        0.0620947140    1.3388376171    4.9598058536
C        1.5062505188   -0.9596122336    3.9683681162
O        2.5373785103    0.8308949079    5.7596015318
O        2.1702371640    1.6502823433    3.3702341142
S        1.7428858153    0.8318461617    4.5162786805
H        2.3673670215   -1.5086925913   -1.3354875192
H        4.2669876504   -0.9832119455    0.1852302489
H        0.0721416632   -1.7596919688   -0.4038288384
H        3.8798797838   -0.7092681412    2.6089386821
H       -0.3133795084   -1.4945537121    2.0293435285
H        3.4125442125   -1.6691147631    4.7600445735
H        2.0836872758   -1.7508480929    5.9157456781
H        2.1626519462   -2.9123942538    4.5655739469
H        0.1398075103    2.3743519938    5.2965426315
H       -0.5755536384    1.2740663523    4.0763183667
H       -0.3010998979    0.7032292315    5.7691358832
H        0.4452884911   -1.1410914748    4.1667510541
24   
Generated by ForceBalance from scan.xyz: Frame 5 of 24
C        1.6917252105   -1.0161342269   -0.1385619706
C        2.8877639378   -0.7264401783    0.5281475020
C        0.5522590446   -1.3508008062    0.5980206734
C        2.9463232150   -0.7777118838    1.9210159853
C        0.6124271680   -1.3957424224    1.9939085507
C        1.8078634273   -1.1168615395    2.6676261630
C        2.9565360930   -2.0960953970    4.7260526191
C        0.7401265212    0.6395205488    6.1095338198
C        1.8577718089   -1.1861625859    4.1717979898
O        3.3554467709    0.6047343843    5.5987832234
O        1.7576852396    1.5387249577    3.8392893890
S        2.0680159636    0.5466011793    4.8810074771
H        1.6481689585   -0.9759666075   -1.2238051420
H        3.7739345690   -0.4535249988   -0.0386383825
H       -0.3815944772   -1.5738090435    0.0887068772
H        3.8760426896   -0.5329176146    2.4275098873
H       -0.2793460453   -1.6510983660    2.5627869387
H        3.9471145792   -1.7384323040    4.4421472376
H        2.9241811423   -2.1457350730    5.8175353959
H        2.8150793390   -3.1028142580    4.3214878700
H        0.8456667304    1.6123091098    6.5935942525
H       -0.2200559059    0.5726803184    5.5958285636
H        0.8640193878   -0.1613657686    6.8411105446
H        0.8802401392   -1.5020983209    4.5483580623
24   
Generated by ForceBalance from scan.xyz: Frame 6 of 24
C        1.8008437410   -1.0362191611   -0.1425914894
C        2.9738696878   -0.7670447603    0.5712045972
C        0.6231756419   -1.3346312050    0.5486111841
C        2.9724822386   -0.8054019329    1.9663162617
C        0.6218772426   -1.3643347937    1.9458205909
C        1.7948830913   -1.1089604454    2.6663623242
C        2.8602502740   -2.0493630617    4.7825295318
C        0.9347934883    0.5788434418    6.3150854128
C        1.7783812780   -1.1541744184    4.1744964803
O        3.3736493591    0.7838927347    5.2359258559
O        1.3351059773    1.5205201047    3.8822164971
S        1.9697567695    0.5884543651    4.8275916680
H        1.8041425034   -1.0075223951   -1.2290790682
H        3.8897244604   -0.5214783954    0.0401683602
H       -0.2937822214   -1.5390534549    0.0021884644
H        3.8849935228   -0.5766708580    2.5098891040
H       -0.3003685594   -1.5845255921    2.4791094073
H        3.8567507907   -1.6870938057    4.5285135173
H        2.7888192214   -2.0861475308    5.8739126011
H        2.7402482766   -3.0647129901    4.3933606161
H        1.0709334475    1.5561438346    6.7820899098
H       -0.1050196789    0.4419740492    6.0156432518
H        1.2676008677   -0.2103939329    6.9919761397
H        0.7834129352   -1.4548106302    4.5162863271
24   
Generated by ForceBalance from scan.xyz: Frame 7 of 24
C        1.8769595658   -1.0457134802   -0.1842593573
C        3.0347610533   -0.8286712162    0.5701864765
C        0.6613026860   -1.2804642081    0.4653214760
C        2.9814395648   -0.8562781527    1.9652336344
C        0.6077107457   -1.3006031236    1.8610921882
C        1.7658823660   -1.0995302784    2.6228181746
C        2.7646396797   -1.9777090880    4.8047859491
C        1.0911178405    0.5523034372    6.4029717481
C        1.6869148963   -1.1256574773    4.1305280577
O        3.2199855554    0.9929771715    4.8511125485
O        0.8782801840    1.4522584360    3.9287642872
S        1.7952452335    0.6301176027    4.7343895487
H        1.9209634592   -1.0255088620   -1.2700883912
H        3.9803594257   -0.6322580231    0.0717763512
H       -0.2446312350   -1.4414086300   -0.1130174696
H        3.8821543030   -0.6648207076    2.5403693870
H       -0.3430319787   -1.4661426646    2.3623333364
H        3.7590974302   -1.5669414162    4.6255532600
H        2.6151256873   -2.0387209524    5.8871006074
H        2.7227116895   -2.9922706008    4.3983486861
H        1.1367236108    1.5725740343    6.7886587744
H        0.0537244356    0.2221634539    6.3331267554
H        1.6866292783   -0.1130989417    7.0292600567
H        0.6855938523   -1.4450146961    4.4348232110
24   
Generated by ForceBalance from scan.xyz: Frame 8 of 24
C        1.9321260458   -1.0422245157   -0.1812554364
C        3.0693299271   -0.8945705064    0.6197457388
C        0.6811282493   -1.2194619959    0.4178620780
C        2.9605340199   -0.9327835576    2.0114795766
C        0.5723066824   -1.2540807287    1.8098956205
C        1.7097812589   -1.1229008038    2.6181518177
C        2.6352470236   -1.9618425835    4.8598792863
C        1.1933338974    0.4796228707    6.4829764577
C        1.5646823437   -1.1559766047    4.1204114000
O        2.9218188908    1.1434306700    4.5746677055
O        0.4129772239    1.2836212251    4.0808099894
S        1.5566271373    0.6035079478    4.7108342453
H        2.0196183824   -1.0125127724   -1.2642715453
H        4.0424597225   -0.7425166496    0.1603507912
H       -0.2089650175   -1.3245461180   -0.1967365202
H        3.8461569317   -0.7921911296    2.6225714299
H       -0.4039146233   -1.3723235514    2.2732944747
H        3.6145639406   -1.4847563121    4.7842879923
H        2.3916800958   -2.0789963387    5.9195220704
H        2.7009330661   -2.9595325948    4.4169068865
H        1.0542617155    1.5086085897    6.8203398870
H        0.2717971184   -0.0878957970    6.6239796593
H        2.0352997225    0.0225652556    7.0024551038
H        0.5635750661   -1.5143057781    4.3778230639
24   
Generated by ForceBalance from scan.xyz: Frame 9 of 24
C        2.0117104036   -1.0074281116   -0.1788045638
C        3.1187196305   -0.8618694580    0.6642464182
C        0.7391584553   -1.1862487888    0.3721436141
C        2.9574737417   -0.9022215803    2.0504013281
C        0.5783642138   -1.2259661686    1.7592802003
C        1.6852817132   -1.0956498605    2.6094692191
C        2.5215275107   -1.9376567022    4.8919596206
C        1.3848224793    0.5030325076    6.5098766148
C        1.4823883721   -1.1363425611    4.1034693168
O        2.6551791367    1.2963934253    4.3323604042
O        0.0973878353    1.1706616686    4.2782056259
S        1.3971446515    0.6217202569    4.7003526882
H        2.1396839287   -0.9749498045   -1.2577159049
H        4.1080767815   -0.7080175637    0.2415783547
H       -0.1272619884   -1.2902301431   -0.2755672717
H        3.8188408467   -0.7608144684    2.6949070312
H       -0.4138350516   -1.3477383372    2.1862582200
H        3.5012548151   -1.4530373422    4.8792089949
H        2.2179232985   -2.0783635065    5.9322009873
H        2.6274989515   -2.9257551052    4.4353675225
H        1.2001548354    1.5215318170    6.8573494786
H        0.5742549216   -0.1537586640    6.8315129249
H        2.3550964387    0.1538001091    6.8608212449
H        0.4782217159   -1.5128768626    4.3184532410
24   
Generated by ForceBalance from scan.xyz: Frame 10 of 24
C        2.0838331382   -1.0038509386   -0.1718178292
C        3.1608364681   -0.8536390517    0.7088870914
C        0.7945891375   -1.1975716579    0.3328600431
C        2.9500682535   -0.9028790774    2.0875389435
C        0.5854096182   -1.2484698597    1.7134152496
C        1.6615082565   -1.1119314673    2.6012707433
C        2.4058692891   -1.9819834835    4.9073020546
C        1.5865831117    0.5282148398    6.4840074638
C        1.4055721709   -1.1654872966    4.0849598060
O        2.3506646131    1.3852453446    4.1194757674
O       -0.1503806679    0.9978320053    4.5148532470
S        1.2534944483    0.5918100510    4.7020985649
H        2.2484828681   -0.9632538921   -1.2454408982
H        4.1626656172   -0.6879600885    0.3214719054
H       -0.0475024042   -1.3058587773   -0.3454959749
H        3.7871607184   -0.7560523782    2.7624741074
H       -0.4194209435   -1.3850414686    2.1052777821
H        3.4012291329   -1.5292139589    4.9158199893
H        2.0726192319   -2.1084752971    5.9397938041
H        2.4969347240   -2.9752732134    4.4583901616
H        1.4235016243    1.5512079256    6.8293155333
H        0.8842644139   -0.1475400193    6.9754247532
H        2.6214293284    0.2335879831    6.6525837505
H        0.3980619574   -1.5523352790    4.2592312596
24   
Generated by ForceBalance from scan.xyz: Frame 11 of 24
C        2.1684196844   -0.9815752963   -0.1574481495
C        3.2017826815   -0.7990429346    0.7687204522
C        0.8666424705   -1.2159423285    0.2939425356
C        2.9362530402   -0.8557909447    2.1371085724
C        0.6032194723   -1.2741111842    1.6652889457
C        1.6350737593   -1.1044313729    2.5984276182
C        2.2753986148   -2.0227406431    4.9100421913
C        1.7910701593    0.5840133318    6.4134491934
C        1.3184116283   -1.1740205561    4.0687608090
O        2.0041147980    1.4717187350    3.9524495354
O       -0.3238856563    0.8395103910    4.8141656432
S        1.1244515305    0.5781106745    4.7259541233
H        2.3765673616   -0.9344726324   -1.2232175068
H        4.2131632373   -0.6018721347    0.4232133857
H        0.0569058636   -1.3507275893   -0.4182232254
H        3.7414518855   -0.6836164396    2.8448303155
H       -0.4121877077   -1.4458804191    2.0142317838
H        3.2916374758   -1.6197187996    4.9222379326
H        1.9289690869   -2.1248266282    5.9410794713
H        2.3237153642   -3.0232171840    4.4703812754
H        1.6620087839    1.6151123138    6.7488556786
H        1.2187362772   -0.0912549597    7.0508032175
H        2.8493468624    0.3260140062    6.3932461733
H        0.3030541698   -1.5558212748    4.1983472920
24   
Generated by ForceBalance from scan.xyz: Frame 12 of 24
C        2.2460647885   -0.9447606059   -0.1131722751
C        3.2411844865   -0.7704424841    0.8554728194
C        0.9292575719   -1.1926013682    0.2837142691
C        2.9209997725   -0.8487255692    2.2109340927
C        0.6120159763   -1.2700556563    1.6426957919
C        1.6041216938   -1.1073666860    2.6186918957
C        2.1589610954   -2.0645069221    4.9281881311
C        1.9868270088    0.6464059512    6.2928731923
C        1.2300330155   -1.1973831915    4.0740789320
O        1.5873155509    1.5174493646    3.8401586628
O       -0.4173119668    0.6405495864    5.1706818032
S        1.0002898632    0.5419620804    4.7734770490
H        2.4957142143   -0.8817761337   -1.1691140535
H        4.2646778033   -0.5650101835    0.5530821053
H        0.1491405257   -1.3225593282   -0.4616463682
H        3.7001522295   -0.6888079041    2.9509314788
H       -0.4155728371   -1.4533380629    1.9478678656
H        3.1798200632   -1.6769338243    4.9668984341
H        1.7874471119   -2.1708711498    5.9505296677
H        2.2029979141   -3.0620347724    4.4815404224
H        1.8279484674    1.6681398127    6.6436829669
H        1.6215566578   -0.0654985921    7.0328186080
H        3.0409763694    0.4903456160    6.0633022977
H        0.2095471333   -1.5759943117    4.1648847315
24   
Generated by ForceBalance from scan.xyz: Frame 13 of 24
C        1.5553956948   -1.3463327584   -0.2836082538
C        2.8077109832   -1.1212912273    0.2982066438
C        0.4211027474   -1.4347969444    0.5283390958
C        2.9242076858   -0.9895812046    1.6828229716
C        0.5421066727   -1.3000527372    1.9135105938
C        1.7929504839   -1.0822887710    2.5065805994
C        3.0803368352   -1.6246785533    4.6515105507
C        3.3942747788    1.3572944483    5.1726280475
C        1.8832010921   -0.9260231786    4.0021908292
O        1.6125568651    1.7046796380    3.2443604905
O        0.8078585948    0.9844898180    5.5644779961
S        1.7882553345    0.9005458725    4.4635584482
H        1.4651454094   -1.4483585814   -1.3618627910
H        3.6926057051   -1.0445016278   -0.3281814093
H       -0.5564824274   -1.6040868105    0.0848344975
H        3.9042100035   -0.8058845741    2.1149263880
H       -0.3448882257   -1.3568661377    2.5401381895
H        4.0381592863   -1.2358100673    4.3004650384
H        3.0487565731   -1.5403871926    5.7413165138
H        3.0405926949   -2.6874857895    4.3961815423
H        3.2857512284    2.4148868091    5.4214998688
H        3.5879608158    0.7754004704    6.0725968789
H        4.1807540460    1.2301330882    4.4272988538
H        0.9609999367   -1.2801308689    4.4689152223
24   
Generated by ForceBalance from scan.xyz: Frame 14 of 24
C        1.6349997750   -1.2493899239   -0.2518054517
C        2.8897423560   -1.2263558757    0.3634410602
C        0.4791680854   -1.1946823621    0.5344059355
C        2.9885423160   -1.1507170563    1.7556026212
C        0.5814512843   -1.1165826897    1.9236324427
C        1.8355682405   -1.0970965140    2.5522588247
C        3.1356560092   -1.6073439478    4.7070406547
C        3.3770986512    1.4417126687    4.8863477779
C        1.9020948542   -0.9814974597    4.0544068935
O        1.1340262687    1.5871674554    3.4627559659
O        1.0263595141    0.7765661415    5.8852860277
S        1.7062368684    0.8128237197    4.5745777507
H        1.5582125145   -1.3090644204   -1.3342935319
H        3.7929505339   -1.2691067573   -0.2397165513
H       -0.5008889809   -1.2074180226    0.0651087316
H        3.9744946417   -1.1400333166    2.2109700609
H       -0.3202477708   -1.0547899664    2.5275716169
H        4.0693864920   -1.1588534278    4.3642825357
H        3.0881862023   -1.5181068406    5.7959143561
H        3.1658453506   -2.6715200907    4.4560128181
H        3.2311381300    2.4969813868    5.1257456746
H        3.8167310392    0.9183965262    5.7338993785
H        3.9837512810    1.3453608349    3.9840813710
H        0.9970776847   -1.3989887539    4.5046633459
24   
Generated by ForceBalance from scan.xyz: Frame 15 of 24
C        1.7270083303   -1.1912146969   -0.2336408902
C        2.9586270142   -1.2391563657    0.4244650322
C        0.5466160069   -1.1150869603    0.5141381336
C        3.0105750714   -1.2119217792    1.8215948455
C        0.6016609614   -1.0854387394    1.9075068373
C        1.8329915771   -1.1354913746    2.5799401212
C        3.0726569158   -1.6925888432    4.7675637342
C        3.2727731784    1.4306207642    4.6168237922
C        1.8515697645   -1.0713028183    4.0878810271
O        0.7697492040    1.4067143624    3.7067322862
O        1.2313136662    0.6051801683    6.0883450065
S        1.6220114272    0.6883601569    4.6670124682
H        1.6862757404   -1.2141013058   -1.3194845506
H        3.8805993269   -1.3021049491   -0.1477595060
H       -0.4159170615   -1.0734181716    0.0114215923
H        3.9791140553   -1.2617741209    2.3099985037
H       -0.3170491287   -1.0030620204    2.4814242710
H        4.0109126981   -1.2365444062    4.4471261847
H        2.9961326616   -1.5984819053    5.8538303234
H        3.1176598795   -2.7564736530    4.5173890049
H        3.1130054714    2.4869508262    4.8418989578
H        3.9032725611    0.9723453858    5.3773723492
H        3.6903748166    1.3203928458    3.6143010613
H        0.9390729109   -1.5188209702    4.4944703861
24   
Generated by ForceBalance from scan.xyz: Frame 16 of 24
C        1.8294310573   -1.1391690542   -0.2356588644
C        3.0347135649   -1.2712672970    0.4589510210
C        0.6313379484   -1.0168444195    0.4771036919
C        3.0427431697   -1.2801640536    1.8573045615
C        0.6413996987   -1.0243272945    1.8721326090
C        1.8467965615   -1.1561501060    2.5804263660
C        3.0064636519   -1.7986179537    4.7973725074
C        3.1768576828    1.4342287671    4.3106959296
C        1.8246287601   -1.1333934047    4.0909372253
O        0.5497040404    1.2563211530    3.9279750409
O        1.5149368111    0.5331084676    6.1784940074
S        1.6167726490    0.6081931064    4.7082644877
H        1.8225180160   -1.1339369489   -1.3224683680
H        3.9700084167   -1.3721639516   -0.0855321221
H       -0.3108912758   -0.9116010098   -0.0540168535
H        3.9899377887   -1.3944559031    2.3756239554
H       -0.2887631310   -0.9055769699    2.4197217036
H        3.9625794648   -1.3357525364    4.5427875324
H        2.8791164395   -1.7448977356    5.8804694851
H        3.0569001573   -2.8504814073    4.5013922647
H        3.0201771892    2.4814406014    4.5766105418
H        3.9792726020    1.0081782042    4.9122927547
H        3.3712087894    1.3402189067    3.2414505990
H        0.8889075875   -1.5721855496    4.4539244210
24   
Generated by ForceBalance from scan.xyz: Frame 17 of 24
C        1.9203408083   -1.0575129367   -0.1913444182
C        3.1035176453   -1.2967448518    0.5132860422
C        0.7235720601   -0.8772947400    0.5111089075
C        3.0898498289   -1.3521932561    1.9102123235
C        0.7107862495   -0.9334531306    1.9057423336
C        1.8951332661   -1.1700656619    2.6229413246
C        3.0140308830   -1.9044831781    4.8385965388
C        3.0483519961    1.4563257222    4.0617904790
C        1.8587801186   -1.1946020436    4.1341359388
O        0.4232009871    1.0915536865    4.2631894983
O        1.8991701723    0.4803794774    6.2545328000
S        1.6781517992    0.5329643410    4.7972742234
H        1.9296264253   -1.0153211200   -1.2773305806
H        4.0375744557   -1.4439741595   -0.0226958194
H       -0.2015525759   -0.6908519773   -0.0277651711
H        4.0188177399   -1.5451848700    2.4378216790
H       -0.2163144552   -0.7698462498    2.4466926646
H        3.9789293302   -1.4294626709    4.6414478532
H        2.8552306068   -1.9024038089    5.9178956396
H        3.0706856892   -2.9391688743    4.4877961994
H        2.9678570252    2.4636981856    4.4746691490
H        3.9947765515    1.0023360583    4.3576761842
H        2.9305406274    1.4726876475    2.9785912272
H        0.9075245900   -1.6227810463    4.4687124469
24   
Generated by ForceBalance from scan.xyz: Frame 18 of 24
C        2.0152525927   -0.9960771115   -0.1648672746
C        3.1714213469   -1.3240377323    0.5490314617
C        0.8187604295   -0.7680448413    0.5245911839
C        3.1338379846   -1.4175046095    1.9435320327
C        0.7810885305   -0.8642855109    1.9166866559
C        1.9401284297   -1.1865847051    2.6427057046
C        2.9840610706   -2.0041461042    4.8728030375
C        2.8696578928    1.4944208146    3.8356261930
C        1.8800209923   -1.2354691239    4.1510174736
O        0.3729524347    0.9607736077    4.5585374857
O        2.2530466122    0.4887377329    6.2227202557
S        1.7441673973    0.4940818279    4.8388011609
H        2.0444396571   -0.9229364627   -1.2488164707
H        4.1035919747   -1.5093516653    0.0217014906
H       -0.0856863348   -0.5147785701   -0.0221347860
H        4.0414698599   -1.6756474056    2.4804146224
H       -0.1434984247   -0.6655403830    2.4511604690
H        3.9722426179   -1.5635878680    4.7127151308
H        2.7980143280   -2.0106361690    5.9472922369
H        3.0062059374   -3.0347800031    4.5055803726
H        2.8520014471    2.4850544252    4.2942238137
H        3.8747456080    1.0729547449    3.8885036755
H        2.5062517159    1.5321525899    2.8099277427
H        0.9044951893   -1.6281065672    4.4570555137
24   
Generated by ForceBalance from scan.xyz: Frame 19 of 24
C        2.1222402651   -1.0589610136   -0.3299374038
C        3.2221962716   -1.3675349969    0.4759516577
C        0.8770214307   -0.8229193850    0.2642419579
C        3.0820816217   -1.4321360943    1.8655865096
C        0.7367180604   -0.8911456570    1.6514688851
C        1.8393055213   -1.1918361836    2.4686214526
C        2.6500031454   -2.0230155823    4.7881777184
C        2.5024320899    1.5855185505    3.4428970062
C        1.6643282090   -1.1979690857    3.9657019266
O        0.1710190154    0.9708894981    4.5385214080
O        2.3018311700    0.6166386073    5.9098079682
S        1.5867283761    0.5602942057    4.6214267642
H        2.2321706378   -1.0079692057   -1.4099412520
H        4.1914575874   -1.5592203639    0.0231274056
H        0.0147923069   -0.5864019679   -0.3535565313
H        3.9475309727   -1.6725779303    2.4758838460
H       -0.2277856102   -0.6915905972    2.1115713000
H        3.6754394996   -1.6538041855    4.7040569008
H        2.3805957268   -1.9932637485    5.8445712764
H        2.6255091084   -3.0606009249    4.4406179161
H        2.4889445376    2.5854232680    3.8813764816
H        3.5278322484    1.2222379314    3.3617318908
H        1.9993513531    1.5748472306    2.4778408113
H        0.6435253974   -1.5151711571    4.1992509729
24   
Generated by ForceBalance from scan.xyz: Frame 20 of 24
C        2.1867676904   -1.0515564727   -0.2856978732
C        3.2847235455   -1.2999624384    0.5447387726
C        0.9195419404   -0.8705767904    0.2787790321
C        3.1192188614   -1.3601007851    1.9307318390
C        0.7564198334   -0.9318399927    1.6646596326
C        1.8535137332   -1.1730441558    2.5068093732
C        2.5466100771   -2.1208330247    4.8015673094
C        2.4041707262    1.6361994140    3.3929108039
C        1.6513375540   -1.1785498350    3.9994313776
O        0.4054749652    0.9960326607    5.0136423107
O        2.8099989488    0.5561755682    5.7754599717
S        1.7849101686    0.5637712796    4.7142971266
H        2.3167122781   -1.0050909538   -1.3636315598
H        4.2711550727   -1.4473712007    0.1128631510
H        0.0596971188   -0.6833578678   -0.3589795266
H        3.9820736417   -1.5513733516    2.5621293410
H       -0.2285371474   -0.7829563983    2.1011635156
H        3.5985580086   -1.8335166636    4.7510275086
H        2.2613682328   -2.1182423487    5.8550340899
H        2.4360618056   -3.1351730558    4.4056794016
H        2.4690612040    2.6224672244    3.8570640793
H        3.3894061757    1.2969808806    3.0742173794
H        1.7000933033    1.6441279142    2.5622134960
H        0.6009742325   -1.3873560147    4.2163025005
24   
Generated by ForceBalance from scan.xyz: Frame 21 of 24
C        1.5910074495   -1.0348083488   -0.1042725604
C        2.7696798895   -0.6922437551    0.5677965597
C        0.4840204586   -1.4795747644    0.6253969629
C        2.8403770106   -0.7898026469    1.9591646939
C        0.5563180174   -1.5737514320    2.0177878162
C        1.7321787336   -1.2291559099    2.7010389332
C        3.0672155263   -1.8521658506    4.7938068758
C        0.9658651848    1.5082957456    3.6461577443
C        1.7682598154   -1.2996589554    4.2058206101
O        0.2842299945    0.2281277020    5.8779856606
O        2.7281007169    0.8986889904    5.5106596104
S        1.4473034872    0.3868691336    4.9840455681
H        1.5377529018   -0.9595104305   -1.1870781256
H        3.6348146183   -0.3477680176    0.0072998115
H       -0.4337864480   -1.7536611026    0.1119411342
H        3.7593807780   -0.5128423009    2.4676023424
H       -0.3088155790   -1.9164281530    2.5812902104
H        3.9169719799   -1.2028139022    4.5805429884
H        2.9931324132   -1.9480476694    5.8796269454
H        3.2532810018   -2.8414743809    4.3649291530
H        0.7443036433    2.4498058870    4.1530300819
H        1.7959765085    1.6286100845    2.9521622969
H        0.0791574284    1.1258123304    3.1410347335
H        0.9093690470   -1.8682607003    4.5684203424
24   
Generated by ForceBalance from scan.xyz: Frame 22 of 24
C        1.6667851090   -1.0384356719   -0.1133891953
C        2.8058020830   -0.6381765292    0.5952150246
C        0.5523687430   -1.5167128190    0.5821705258
C        2.8312531419   -0.7157363828    1.9890135682
C        0.5774060965   -1.5881653245    1.9781876598
C        1.7142163495   -1.1908203225    2.6960902975
C        2.9451935227   -1.9212331542    4.8056446341
C        0.8084520985    1.5082738535    3.6871506205
C        1.7092790646   -1.2475566325    4.2028003165
O        0.6928326180    0.3841763530    6.1041338543
O        2.9720276068    0.9792375458    5.1033459509
S        1.5964422031    0.4674937158    4.9414858622
H        1.6496425683   -0.9791540893   -1.1983853893
H        3.6746956619   -0.2629791193    0.0608708334
H       -0.3349344117   -1.8334136910    0.0403553502
H        3.7136465764   -0.3859891387    2.5297238909
H       -0.2938750655   -1.9574965904    2.5149374367
H        3.8570963327   -1.3806639841    4.5510047939
H        2.8739887038   -1.9672838354    5.8956777993
H        3.0122478264   -2.9411198229    4.4157701084
H        0.6676022101    2.4722681383    4.1803216078
H        1.4657937782    1.6036396294    2.8250149335
H       -0.1549899583    1.0804500343    3.4069633425
H        0.7937018612   -1.7239087396    4.5605842894
24   
Generated by ForceBalance from scan.xyz: Frame 23 of 24
C        1.7475679787   -1.0611347193   -0.1411354694
C        2.8717651179   -0.6490271290    0.5841176431
C        0.6177366019   -1.5248285686    0.5392222082
C        2.8698822903   -0.7012855220    1.9794529008
C        0.6139177749   -1.5709452910    1.9365799804
C        1.7370096381   -1.1630079330    2.6699421220
C        2.8658102944   -1.9710862738    4.8168718491
C        0.6613765114    1.4844535329    3.8017203885
C        1.7029002645   -1.2044863132    4.1773393726
O        1.0926268046    0.4448224767    6.2191468292
O        3.0976314508    1.0413652487    4.7499133105
S        1.7278932095    0.5094798150    4.8901501898
H        1.7530541101   -1.0208569411   -1.2271735759
H        3.7514854254   -0.2830207192    0.0612610168
H       -0.2590110273   -1.8492522073   -0.0150819308
H        3.7366139007   -0.3569292409    2.5352432811
H       -0.2691358079   -1.9294963272    2.4614399756
H        3.8246697684   -1.5166901597    4.5627875602
H        2.7693294209   -1.9886168177    5.9057478577
H        2.8536722864   -2.9998910566    4.4461787938
H        0.6002515513    2.4679671834    4.2718971852
H        1.1144243672    1.5522705659    2.8139041480
H       -0.3267404974    1.0236804497    3.7573624599
H        0.7471084349   -1.6064907557    4.5239381842
24   
Generated by ForceBalance from scan.xyz: Frame 24 of 24
C        1.8256628937   -1.1129647277   -0.1628500413
C        2.9520202287   -0.7311826679    0.5751767638
C        0.6602661764   -1.5008744562    0.5048299525
C        2.9181112281   -0.7385424086    1.9710792146
C        0.6250774458   -1.5039217748    1.9023997660
C        1.7508674660   -1.1264284511    2.6488625784
C        2.7696208439   -1.9641230347    4.8541564063
C        0.4714887588    1.4707299254    3.9727890566
C        1.6831476164   -1.1383567992    4.1553333671
O        1.3943995458    0.4960979605    6.2688610822
O        3.0723636406    1.1685180414    4.4653782561
S        1.7768900096    0.5757869578    4.8467955067
H        1.8566533774   -1.1073757243   -1.2492418284
H        3.8589479124   -0.4228664202    0.0617396574
H       -0.2190203806   -1.8007709791   -0.0592105988
H        3.7864674859   -0.4152049797    2.5356398622
H       -0.2845276354   -1.8067217227    2.4171560365
H        3.7661361881   -1.5784098724    4.6283703020
H        2.6275479163   -1.9518420643    5.9373378407
H        2.7094329663   -2.9964608889    4.4986609388
H        0.4736199080    2.4766659855    4.3969204692
H        0.7025860380    1.4985523799    2.9082296308
H       -0.4843869243    0.9807096739    4.1642838934
H        0.6972763342   -1.4833930622    4.4816731929
