26

C     -2.15203    0.34877   -0.39996
C     -0.79924    0.36409   -0.07159
C     -0.70691    2.81674   -0.20532
C     -3.03283    3.86177   -0.76988
C     -2.07634    2.81167   -0.52593
C     -2.77172    1.57903   -0.64001
C     -0.10927    1.58706    0.01309
C     -4.23530    3.25563   -1.02811
C     -5.53147    3.84090   -1.45679
C     -5.20981    0.99515   -0.65532
C     -6.51470    1.54715   -1.21760
N     -4.09466    1.86017   -1.00563
N     -6.66024    3.01159   -0.84346
F      1.20301    1.54653    0.32935
H     -2.68405   -0.59494   -0.47510
H     -0.25675   -0.55658    0.11750
H     -0.12943    3.73169   -0.12051
H     -2.83602    4.92652   -0.79632
H     -5.64551    4.87395   -1.12614
H     -5.69958    3.78797   -2.53832
H     -5.28606    0.87705    0.43598
H     -5.06237   -0.00066   -1.08233
H     -6.53670    1.51178   -2.30869
H     -7.37516    1.00893   -0.81698
H     -6.63470    3.11208    0.17967
H     -7.57163    3.36458   -1.15887
