29

C      1.10906    3.52606    1.92193
C      1.43668    2.54458    2.86346
C     -0.23181    3.83830    1.66503
C      0.42565    1.85904    3.54320
C     -1.25039    3.16084    2.33880
C     -0.90646    2.16944    3.26230
C     -2.77471   -2.09976    0.62577
C     -1.85614   -0.98579    0.11291
C     -2.54931   -2.25896    2.13041
C     -0.91861   -0.67209    1.28969
C     -1.75032   -1.01532    2.55516
N     -2.68642    0.04500    2.96720
O     -3.54961   -2.74754   -0.04971
O     -1.60871    0.52655    5.19033
O     -3.38102    2.10138    4.18917
S     -2.21536    1.22749    4.05909
H      1.89805    4.05637    1.39556
H      2.47781    2.31543    3.07328
H     -0.48330    4.61415    0.94722
H      0.65630    1.10160    4.28548
H     -2.29455    3.40629    2.16879
H     -1.35324   -1.29504   -0.80651
H     -2.48699   -0.12671   -0.15032
H     -3.48511   -2.39239    2.67602
H     -1.94511   -3.16327    2.27620
H     -0.04445   -1.33200    1.25829
H     -0.55183    0.35494    1.29477
H     -1.12286   -1.21660    3.42394
H     -3.29204    0.43280    2.24652
