29

C     -4.05748   -1.73043    7.83107
C     -5.03223   -1.25125    6.94533
C     -2.70145   -1.50062    7.58178
C     -4.65337   -0.54308    5.80483
C     -2.30845   -0.79093    6.44179
C     -3.29253   -0.32723    5.56847
C     -2.96751   -2.15138    0.23648
C     -1.76871   -1.19917    0.25546
C     -3.26914   -2.57964    1.67575
C     -1.22457   -1.27314    1.69124
C     -2.46446   -1.61311    2.55825
N     -3.31592   -0.45228    2.88885
O     -3.57987   -2.51147   -0.74953
O     -3.65286    1.78025    3.95429
O     -1.34107    0.71902    4.14887
S     -2.80438    0.59589    4.11110
H     -4.35850   -2.28111    8.71828
H     -6.08534   -1.42742    7.14581
H     -1.94867   -1.86809    8.27358
H     -5.39354   -0.16055    5.10906
H     -1.26344   -0.58995    6.22874
H     -1.05128   -1.47006   -0.52298
H     -2.13421   -0.19470    0.00516
H     -4.34078   -2.59364    1.88396
H     -2.89156   -3.60268    1.79594
H     -0.50607   -2.09635    1.77673
H     -0.72961   -0.36445    2.03342
H     -2.18174   -2.07022    3.50886
H     -3.62358    0.11060    2.09511
