64

C      3.96714   -0.71853   -6.59553
C      5.12446   -0.09562   -6.12106
C      3.20895   -1.03486   -4.32897
C      2.99573   -1.19510   -5.70474
C      1.74739   -1.82049   -6.24238
C      4.34929   -0.40304   -3.81762
C      0.56970   -1.05008   -6.34152
C      1.76780   -3.14816   -6.70483
C      5.28468    0.05299   -4.75051
C     -0.53751   -1.64732   -6.97351
C      0.60039   -3.64967   -7.31585
C      4.11745    1.26971   -1.93715
C      2.91196    4.16214   -4.82964
C     -2.97194   -1.59128   -6.36333
C     -2.22257   -0.91662   -8.69314
C      0.27415   -4.95661   -9.42863
C     -0.60841   -5.85324   -7.22175
C      4.53596   -0.15682   -2.33954
C      0.54644    0.37265   -5.82347
C      3.00801   -4.00351   -6.55114
C      2.62524    2.80995   -5.48961
C      0.97433    1.41460   -6.87653
C      1.29891    2.78537   -6.26381
C     -1.86128   -0.92927   -7.19800
C      0.50598   -5.04690   -7.90990
N     -0.50211   -2.90419   -7.43844
O      3.72657   -4.18748   -7.78274
F      6.40354    0.68284   -4.29443
H      3.80550   -0.80690   -7.66701
H      5.88592    0.28416   -6.79551
H      2.45869   -1.40351   -3.63264
H      4.70929    2.01637   -2.47467
H      4.26291    1.42778   -0.86346
H      3.06212    1.44734   -2.16871
H      2.13252    4.42050   -4.10317
H      3.87048    4.15032   -4.29944
H      2.95099    4.96745   -5.57254
H     -3.08962   -2.63862   -6.65656
H     -3.92783   -1.07764   -6.51499
H     -2.73511   -1.56297   -5.29386
H     -2.33159   -1.93790   -9.06738
H     -1.44376   -0.42089   -9.28311
H     -3.16504   -0.38147   -8.85386
H     -0.65866   -4.42652   -9.64187
H      0.21389   -5.95963   -9.86524
H      1.09606   -4.42229   -9.91600
H     -1.57504   -5.36001   -7.35836
H     -0.42516   -5.94695   -6.14532
H     -0.66899   -6.86196   -7.64510
H      3.94329   -0.88665   -1.77856
H      5.58386   -0.31620   -2.06713
H     -0.44819    0.62914   -5.44759
H      1.21419    0.44602   -4.96439
H      3.66770   -3.57816   -5.78821
H      2.74346   -5.01102   -6.22462
H      3.44207    2.55293   -6.17555
H      2.62835    2.02907   -4.72130
H      0.17858    1.51133   -7.62539
H      1.85538    1.04396   -7.41290
H      1.34260    3.53785   -7.06186
H      0.47909    3.09370   -5.59952
H     -1.76509    0.10905   -6.87251
H      1.45518   -5.56397   -7.75845
H      4.03073   -3.31214   -8.07064
