29   

C        1.7890259557   -3.6499303148   -0.9845075906
C        0.8464754006   -3.5303342343    0.0230782030
C        5.2434032995    1.4097755954   -0.0325840223
C        5.9023787277    1.2482457472   -1.2409288844
C        2.6798543377   -2.6064389290   -1.2256429465
C        0.7756589965   -2.3480100550    0.7538314318
C        4.1807269782    0.5550368567    0.2380258241
C        5.4877333159    0.2465212452   -2.1183349459
C        2.6735102619   -1.4065386280   -0.4628430914
C        1.6469081890   -1.2660116751    0.5149330792
C        3.7831421112   -0.4293819808   -0.6924102924
C        1.1059811004    1.1510144281    0.3554794101
C        0.8343117951   -0.0458983625    2.5484606787
N        4.4623654186   -0.5743732244   -1.8512594762
N        1.3636272244   -0.0492064140    1.1740051257
H        1.8450724017   -4.5571383628   -1.5753345549
H        0.1545933229   -4.3405010737    0.2231570039
H        5.5534904117    2.1635677134    0.6836478354
H        6.7402152049    1.8805214539   -1.5059284530
H        3.4196646188   -2.7705504559   -2.0010708602
H       -0.0118306011   -2.2614482032    1.4895369999
H        3.6955174094    0.6330175537    1.1991087851
H        6.0176724403    0.1233930546   -3.0555627083
H        1.3812161464    0.9833494393   -0.6903342563
H        1.6836811279    1.9999975360    0.7331254408
H        0.0409883529    1.4014769358    0.3837029529
H        1.1238290503    0.8768875392    3.0605105129
H        1.2428610854   -0.8867908429    3.1179084667
H       -0.2579147577   -0.1185799665    2.5356055439
29   

C        1.8231909834   -3.6961540338   -0.9327825557
C        0.8457006130   -3.5505449878    0.0406282326
C        5.2612507283    1.3328270438    0.0581566588
C        5.7812260435    1.3358782623   -1.2277772791
C        2.7255345040   -2.6601443868   -1.1647179849
C        0.7524923946   -2.3518443164    0.7457069960
C        4.2471499016    0.4233096806    0.3348752822
C        5.2768966062    0.4430748748   -2.1755239118
C        2.6941234735   -1.4565919458   -0.4191014052
C        1.6369080243   -1.2790541895    0.5145080442
C        3.7783665851   -0.4592762850   -0.6577745888
C        1.2110155443    1.1637724213    0.3172529941
C        0.7592687051   -0.0103697463    2.4911733705
N        4.3001609627   -0.4334765302   -1.9010752518
N        1.3643767251   -0.0453912660    1.1490876688
H        1.8937691255   -4.6147827751   -1.5040417490
H        0.1438508458   -4.3539336705    0.2331737103
H        5.6358975470    2.0059998856    0.8222331016
H        6.5754906702    2.0178354784   -1.5035820065
H        3.4948669538   -2.8172424531   -1.9129701954
H       -0.0583983578   -2.2475847426    1.4531011307
H        3.8365948644    0.3713851190    1.3341219319
H        5.6934116303    0.4559461851   -3.1758960009
H        1.4519572229    0.9577870341   -0.7301564795
H        1.8694738983    1.9599046661    0.6770750069
H        0.1744873228    1.5131222468    0.3532288370
H        1.0250021768    0.9218991191    2.9990422281
H        1.1315916673   -0.8403120558    3.1000966746
H       -0.3309634062   -0.0776493741    2.4190002479
29   

C        1.8457009672   -3.7520669508   -0.8806411101
C        0.8369172172   -3.5733728729    0.0577718211
C        5.2962461509    1.2333556741    0.1325777321
C        5.6687551350    1.4044716608   -1.1933428375
C        2.7649356851   -2.7291719105   -1.1066843027
C        0.7299735048   -2.3563656617    0.7326200231
C        4.3308971170    0.2708132932    0.4032854149
C        5.0662011542    0.6252098980   -2.1843563765
C        2.7177184600   -1.5199625320   -0.3814660989
C        1.6331032205   -1.2986721885    0.5061115081
C        3.7813441371   -0.5063832564   -0.6318730151
C        1.3034014331    1.1578827810    0.2670539651
C        0.7210344674    0.0237497448    2.4302726685
N        4.1380335550   -0.3043151350   -1.9143957323
N        1.3780107505   -0.0479319487    1.1146478216
H        1.9232698274   -4.6831761888   -1.4303507034
H        0.1210616104   -4.3655444934    0.2451607164
H        5.7400445575    1.8236737730    0.9274964748
H        6.4181135592    2.1355952356   -1.4688762317
H        3.5561732189   -2.8862669732   -1.8320188116
H       -0.1015605337   -2.2273557822    1.4114167213
H        4.0028281192    0.0957868091    1.4199887977
H        5.3616728917    0.7758593827   -3.2160492316
H        1.5088114529    0.9192380877   -0.7810017181
H        2.0243368883    1.9078391867    0.6052807631
H        0.2964113734    1.5841320017    0.3114396237
H        0.9799265378    0.9630172109    2.9287864959
H        1.0577556160   -0.7977705492    3.0704837519
H       -0.3663550160   -0.0299346216    2.3163510155
29   

C        1.8613819015   -3.7803837310   -0.8118350381
C        0.8193951670   -3.5609160188    0.0827484285
C        5.3833199496    1.1183147402    0.2051066490
C        5.6021155834    1.4630653748   -1.1218097728
C        2.8006087470   -2.7745439974   -1.0344464081
C        0.7015910123   -2.3225030728    0.7181412037
C        4.4503004015    0.1192936629    0.4563242356
C        4.8809486258    0.8170278407   -2.1300173844
C        2.7372984111   -1.5498919047   -0.3437834735
C        1.6264035381   -1.2835485427    0.4945676865
C        3.7936252875   -0.5290809385   -0.6023128492
C        1.3875920317    1.1805685942    0.2132016759
C        0.6938603961    0.0938798617    2.3681567768
N        3.9851715762   -0.1488208023   -1.8783368177
N        1.3899206613   -0.0165865542    1.0758087207
H        1.9459693454   -4.7279234381   -1.3316096931
H        0.0871606635   -4.3388531143    0.2664505743
H        5.9141909312    1.6088410241    1.0143651279
H        6.3182924311    2.2313777738   -1.3840965506
H        3.6138976297   -2.9487284887   -1.7307474746
H       -0.1505149943   -2.1632923687    1.3642733368
H        4.2191474154   -0.1809742965    1.4705472532
H        5.0520592726    1.1074042036   -3.1599616605
H        1.5346119318    0.9108252332   -0.8370536288
H        2.1781071534    1.8729048011    0.5165512643
H        0.4208494854    1.6888734334    0.2814692061
H        0.9532378845    1.0391812249    2.8549369521
H        0.9971783853   -0.7190784281    3.0354087830
H       -0.3902348647    0.0557189113    2.2215990596
29   

C        1.9288182636   -3.8147479218   -0.7274816662
C        0.8471356366   -3.5704275677    0.1131697703
C        5.5570169808    0.9304565334    0.2435796137
C        5.6086519694    1.4849159930   -1.0285870337
C        2.8640099424   -2.8062095760   -0.9567038093
C        0.6911162514   -2.3091038043    0.6942231090
C        4.6225236941   -0.0753875780    0.4606326127
C        4.7279017300    1.0314293132   -2.0151725809
C        2.7479762081   -1.5525159347   -0.3314225761
C        1.6123390347   -1.2690391655    0.4639839547
C        3.8007642451   -0.5217667704   -0.5846063487
C        1.3809953604    1.1882115612    0.1327172563
C        0.6560941860    0.1413368221    2.2985232809
N        3.8312553497    0.0582504442   -1.7972424269
N        1.3659563854    0.0077303373    1.0161617861
H        2.0460208252   -4.7832178062   -1.2002432395
H        0.1171362865   -4.3495489609    0.3007349243
H        6.2141888532    1.2693507657    1.0377157960
H        6.3165297334    2.2698401231   -1.2627058360
H        3.7080636080   -2.9964946966   -1.6105689801
H       -0.1825515314   -2.1346636354    1.3068666719
H        4.5151121691   -0.5336931876    1.4353769427
H        4.7701389248    1.4843948653   -2.9987437403
H        1.4298138212    0.8887117531   -0.9184970213
H        2.2352439171    1.8305491087    0.3644617557
H        0.4569879574    1.7612424551    0.2567417622
H        0.9022777524    1.0998254453    2.7660382894
H        0.9607464118   -0.6532874336    2.9869225668
H       -0.4261077991    0.0897425349    2.1427561866
29   

C        2.0466507316   -3.8489731061   -0.4927152144
C        0.9077007158   -3.5698802738    0.2562387651
C        5.8933252906    0.5453846681    0.0990496971
C        5.7704349450    1.3485351402   -1.0273138896
C        2.9567081865   -2.8288447135   -0.7674617873
C        0.6828139705   -2.2703926060    0.7180151238
C        4.8882431689   -0.3875805621    0.3270874058
C        4.6661851839    1.1910930177   -1.8704766911
C        2.7384016235   -1.5168157545   -0.3114322746
C        1.5784643829   -1.2201666268    0.4409067150
C        3.8010539589   -0.4901630182   -0.5520688742
C        1.1953219138    1.1894051815   -0.0338164470
C        0.6213058020    0.2464971138    2.2235921028
N        3.7004877330    0.2889410562   -1.6428202385
N        1.2871288565    0.0730342628    0.9227234674
H        2.2278285005   -4.8535430001   -0.8577582192
H        0.1942753491   -4.3559675195    0.4758394358
H        6.7371326303    0.6412419293    0.7745117042
H        6.5196801779    2.0943743346   -1.2604509624
H        3.8503147285   -3.0502747144   -1.3405279808
H       -0.2185792018   -2.0747664471    1.2825612887
H        4.9235119335   -1.0414006984    1.1888873754
H        4.5859096383    1.8238387900   -2.7465749792
H        1.2066320400    0.8205951976   -1.0638446758
H        2.0245651604    1.8875254031    0.1109633503
H        0.2496298063    1.7229569876    0.1018920679
H        0.8711186889    1.2249614893    2.6455005089
H        0.9605784624   -0.5178127165    2.9299854182
H       -0.4648199518    0.1740535181    2.1091781889
29   

C        2.1260751665   -3.8549278464   -0.2957252900
C        0.9351256493   -3.5500715231    0.3536775600
C        6.1043407945    0.2646176066   -0.1447993650
C        5.8638612653    1.2620275095   -1.0794735352
C        3.0298265189   -2.8347901030   -0.5901115675
C        0.6621202474   -2.2278087494    0.7095498357
C        5.0658327522   -0.6203252880    0.1217645491
C        4.6194264652    1.3270527631   -1.7118917952
C        2.7485589061   -1.4906342462   -0.2763564969
C        1.5531230807   -1.1799265895    0.4123991245
C        3.8190005471   -0.4725845785   -0.5076524980
C        0.9597777763    1.1496599210   -0.1921054357
C        0.6200757358    0.3321072455    2.1584878214
N        3.6235733801    0.4697050989   -1.4463316166
N        1.2173774099    0.1222155310    0.8303127795
H        2.3521312638   -4.8793491667   -0.5691228621
H        0.2236870036   -4.3343898867    0.5857115915
H        7.0622827831    0.1779483170    0.3574654890
H        6.6300804232    1.9847567870   -1.3294852762
H        3.9629913747   -3.0820870548   -1.0840705545
H       -0.2690839100   -2.0093628987    1.2147090420
H        5.1975148771   -1.4218654469    0.8369712582
H        4.4507493324    2.1019375483   -2.4504264441
H        1.0298539782    0.7243917749   -1.1979462221
H        1.6773453213    1.9697043311   -0.0976581953
H       -0.0539843955    1.5458973628   -0.0792211603
H        0.8915118368    1.3214389833    2.5394955199
H        0.9941185892   -0.4138556598    2.8670362175
H       -0.4704013364    0.2558195545    2.1030907663
29   

C        0.8945912019   -2.6822436331   -2.1139263038
C       -0.0470674348   -2.6969370187   -1.0925151291
C        5.8584945369    0.0394407900   -1.1993721815
C        5.6687546010    1.3952587099   -0.9683094821
C        2.0401386642   -1.8999647956   -1.9820126327
C        0.1804907080   -1.9566731703    0.0690086961
C        4.7373171589   -0.7804065182   -1.1355485120
C        4.3836364362    1.8767384217   -0.7025615290
C        2.2570034697   -1.0996067603   -0.8417958165
C        1.3395936364   -1.1733106599    0.2405221439
C        3.4803988700   -0.2467082653   -0.8034165243
C        0.4172100676   -0.0965296078    2.3108944005
C        2.8802349590   -0.5718376394    2.1379803377
N        3.3098066464    1.0782095624   -0.6385770791
N        1.5533787570   -0.5602153428    1.4985847154
H        0.7327548586   -3.2655401958   -3.0132829894
H       -0.9462034483   -3.2947949191   -1.1885687959
H        6.8406147507   -0.3638456280   -1.4239747067
H        6.5016665572    2.0860364045   -1.0023902030
H        2.7514930105   -1.8757609929   -2.7998426535
H       -0.5475352404   -2.0298470683    0.8648539782
H        4.8267952196   -1.8435113111   -1.3172497715
H        4.2478261046    2.9398559347   -0.5423168759
H       -0.3698090491    0.3105712301    1.6682174618
H        0.7377125525    0.7009241267    2.9885174488
H        0.0115083490   -0.9226573300    2.9032642681
H        3.3093446761    0.4341586022    2.1488221812
H        3.5627134476   -1.2501412973    1.6179330169
H        2.7929889709   -0.9356466363    3.1663159809
29   

C        1.0238601454   -2.7310095238   -2.0485984836
C        0.0356770368   -2.6975213677   -1.0748971128
C        5.9101029600    0.1216477896   -1.2866559130
C        5.7345738007    1.4289830065   -0.8562154423
C        2.1751390472   -1.9631841824   -1.8884802975
C        0.2221316145   -1.9246658988    0.0709587490
C        4.8053952311   -0.7213184565   -1.2353403636
C        4.4787222111    1.8429429964   -0.4062175826
C        2.3613215605   -1.1280225333   -0.7636400196
C        1.3849277220   -1.1540145169    0.2749929348
C        3.5733740465   -0.2628370353   -0.7303870079
C        0.3819540398   -0.0320035373    2.2880522940
C        2.8434647664   -0.5378633441    2.2331648256
N        3.4211507261    1.0226625513   -0.3550344380
N        1.5458587263   -0.5251676556    1.5348260605
H        0.8921465036   -3.3378920859   -2.9372309072
H       -0.8688556092   -3.2827709490   -1.1949703781
H        6.8706362790   -0.2289460499   -1.6501321519
H        6.5561588584    2.1338359051   -0.8717155752
H        2.9072132440   -1.9762870291   -2.6873488051
H       -0.5438416275   -1.9638073254    0.8327841430
H        4.9008322909   -1.7486474408   -1.5604932980
H        4.3523360933    2.8701529393   -0.0849884487
H       -0.3777678168    0.3595420399    1.6043281802
H        0.6814139487    0.7837510582    2.9534070044
H       -0.0505056134   -0.8383117524    2.8888178790
H        3.2845218815    0.4632800299    2.2428847728
H        3.5391943808   -1.2341908843    1.7555229369
H        2.7079537108   -0.8732424111    3.2659697789
29   

C        1.0757858098   -2.8160950631   -1.9843997734
C        0.0559635833   -2.7232756385   -1.0505044472
C        5.8929377259    0.1883655660   -1.4171742152
C        5.7452676235    1.4371512605   -0.8335562928
C        2.2359368052   -2.0634600173   -1.8174612738
C        0.2196211026   -1.9068671301    0.0661712510
C        4.8049936162   -0.6763498671   -1.3640419469
C        4.5335429760    1.7723011827   -0.2280826471
C        2.4117910602   -1.1865116099   -0.7181655487
C        1.3902951325   -1.1512207640    0.2807733150
C        3.6066856804   -0.2966030312   -0.7211571715
C        0.3446959641    0.0601930425    2.2207290853
C        2.7711725925   -0.5929662114    2.3033155109
N        3.4927001344    0.9315758963   -0.1771672848
N        1.5173375373   -0.5031527307    1.5339237476
H        0.9603103502   -3.4543910160   -2.8530911706
H       -0.8559967925   -3.2952707568   -1.1780958674
H        6.8223636175   -0.1041461170   -1.8949380161
H        6.5557339310    2.1548336460   -0.8432297837
H        2.9724740269   -2.1247752169   -2.6083552378
H       -0.5719226713   -1.9014563524    0.8024356857
H        4.9051720040   -1.6615288230   -1.7969273341
H        4.4282101185    2.7531794462    0.2203417410
H       -0.3728715622    0.4522055573    1.4932313695
H        0.6493633314    0.8887501370    2.8675547113
H       -0.1409567342   -0.7069078504    2.8321780527
H        3.2316906936    0.3946333039    2.4020841631
H        3.4813309703   -1.2703548261    1.8195449638
H        2.5684995329   -0.9896703472    3.3027617354
29   

C        1.1177590583   -2.8832989346   -1.8954268902
C        0.0738306908   -2.7350789609   -0.9991315069
C        5.8580788508    0.2814264003   -1.5348256107
C        5.7653507042    1.4528405364   -0.8021090993
C        2.2845914770   -2.1411859223   -1.7290693470
C        0.2202776065   -1.8741662672    0.0835234067
C        4.7818132725   -0.5982774249   -1.4806590609
C        4.6192323323    1.6965421347   -0.0476188949
C        2.4550287211   -1.2195321700   -0.6608442599
C        1.3962359170   -1.1277420378    0.3014249714
C        3.6355797977   -0.3075149943   -0.7014551603
C        0.3099768784    0.1875448725    2.1499933103
C        2.6783937469   -0.6223832768    2.3924106774
N        3.5903264434    0.8419674762    0.0017265140
N        1.4866766565   -0.4520986114    1.5420605772
H        1.0159138894   -3.5563870511   -2.7392522655
H       -0.8434175275   -3.2982015079   -1.1283470458
H        6.7400213286    0.0560148416   -2.1256037754
H        6.5696876134    2.1774111046   -0.8056875440
H        3.0221895371   -2.2601432677   -2.5097375342
H       -0.5911104272   -1.8265514809    0.7963674204
H        4.8710799924   -1.5226280413   -2.0299714649
H        4.5563836782    2.6149279172    0.5241391866
H       -0.3608279055    0.5705137278    1.3746998995
H        0.6208673222    1.0333966128    2.7708468569
H       -0.2312298679   -0.5309420024    2.7738061588
H        3.1591758577    0.3438010191    2.5735623648
H        3.4035187656   -1.2931683181    1.9214524514
H        2.3936248377   -1.0625402852    3.3527965648
29   

C        1.1463219474   -2.9331840104   -1.8316408763
C        0.0977598750   -2.7647012876   -0.9471985136
C        5.7849163560    0.4116138828   -1.6789909351
C        5.8193722893    1.4290166897   -0.7422746240
C        2.3114070597   -2.1857422298   -1.6778615505
C        0.2389193993   -1.8766152898    0.1117617102
C        4.7036094989   -0.4634552137   -1.6429392901
C        4.7886650792    1.5300195065    0.1877335397
C        2.4829041409   -1.2337196012   -0.6328496113
C        1.4110289171   -1.1211462592    0.3171637431
C        3.6679133062   -0.3207191881   -0.6821049408
C        0.2914607568    0.3264745797    2.0367383139
C        2.5472311356   -0.6897344727    2.4929200464
N        3.7549422636    0.6810903444    0.2162149382
N        1.4626208008   -0.4086579439    1.5361369519
H        1.0533495322   -3.6338235990   -2.6538266918
H       -0.8170981828   -3.3341893935   -1.0651017091
H        6.5736284103    0.3006083725   -2.4160499025
H        6.6332577831    2.1425481095   -0.7227038054
H        3.0536121200   -2.3592624284   -2.4411317524
H       -0.5751790385   -1.8093688074    0.8203274690
H        4.7087746283   -1.2493802040   -2.3791981045
H        4.8228791218    2.3277708133    0.9203357837
H       -0.3367991769    0.6592091361    1.2046561981
H        0.6141404165    1.2136761919    2.5900293471
H       -0.3008147169   -0.3123843231    2.6995979087
H        3.0508907002    0.2386581432    2.7794581768
H        3.2880014796   -1.3657328457    2.0543567115
H        2.1430686962   -1.1689382883    3.3896226304
29   

C        1.1783304056   -2.9412259194   -1.8232406225
C        0.1770436200   -2.8304348147   -0.8764099781
C        5.6699125704    0.5747382084   -1.8870117382
C        5.9694120776    1.2909694972   -0.7420105150
C        2.3204614614   -2.1505295891   -1.7194754728
C        0.3387153671   -1.9414708038    0.1793082236
C        4.5453160667   -0.2438027678   -1.8594355797
C        5.1445491567    1.1644435147    0.3723736487
C        2.5151548490   -1.2122444079   -0.6666934756
C        1.4848189032   -1.1357076651    0.3225339213
C        3.7300446921   -0.3439813381   -0.7017562832
C        0.3516961441    0.5015004134    1.8252672701
C        2.4265185948   -0.7086660755    2.5714889103
N        4.0663923503    0.3719312448    0.3884766887
N        1.5099357766   -0.3366555739    1.4812275510
H        1.0746254018   -3.6439283757   -2.6423727557
H       -0.7166352089   -3.4399347174   -0.9473060301
H        6.2836943935    0.6573858967   -2.7780901341
H        6.8283669422    1.9486769863   -0.7037006735
H        3.0594860174   -2.3172859506   -2.4890267977
H       -0.4401533450   -1.8919721610    0.9285931779
H        4.3096146829   -0.7632054178   -2.7740001152
H        5.3836517909    1.7300197690    1.2652420540
H       -0.2454520889    0.7157643389    0.9332442405
H        0.6898119900    1.4545615950    2.2429950788
H       -0.2812039997   -0.0090394095    2.5581134400
H        2.9559376464    0.1761974907    2.9378910862
H        3.1678461678   -1.4346880014    2.2228192729
H        1.8682499533   -1.1622257810    3.3959694097
29   

C        1.2035203195   -2.9706099221   -1.7926098884
C        0.2231543595   -2.8973307173   -0.8165876391
C        5.5116841888    0.7444295948   -1.9181436590
C        5.9929507693    1.2148908870   -0.7076788525
C        2.3262577904   -2.1494097072   -1.7073066522
C        0.3783315299   -2.0028933850    0.2384000738
C        4.3724060209   -0.0526495663   -1.8885864672
C        5.3292039340    0.8728424984    0.4697375957
C        2.5180303704   -1.2332908567   -0.6401466605
C        1.5030560572   -1.1656709845    0.3552134321
C        3.7231937656   -0.3583729363   -0.6691720454
C        0.3551503074    0.5715092793    1.7091410697
C        2.3346158012   -0.6763591258    2.6268719427
N        4.2338275198    0.1031775503    0.4870872721
N        1.5112589763   -0.3036526067    1.4653139469
H        1.0999996013   -3.6687803913   -2.6155783408
H       -0.6534662831   -3.5327913756   -0.8702958056
H        5.9986591932    0.9964546226   -2.8545426275
H        6.8726730250    1.8442393385   -0.6647198327
H        3.0708550299   -2.2698320655   -2.4833689236
H       -0.3896699769   -1.9611323445    0.9995345971
H        3.9705558559   -0.3956962675   -2.8306105776
H        5.7151576333    1.2434198500    1.4120606703
H       -0.2014651910    0.7382912763    0.7813786715
H        0.6928190606    1.5435012169    2.0811159932
H       -0.3171198667    0.1173593451    2.4439917135
H        2.8929498365    0.1927759966    2.9875662712
H        3.0503891343   -1.4597371780    2.3581710456
H        1.7006474769   -1.0585182845    3.4326856485
29   

C        1.2515716998   -3.0378265922   -1.7372386255
C        0.2645258362   -2.9597128122   -0.7648272880
C        5.3711346505    0.8759563449   -1.9103332575
C        5.9955742059    1.1686676595   -0.7077260700
C        2.3656868452   -2.2035038351   -1.6578207804
C        0.3992480408   -2.0413389169    0.2749256220
C        4.2320795682    0.0800616666   -1.8608043859
C        5.4719176193    0.6539791872    0.4793315702
C        2.5402204025   -1.2863573189   -0.5942492660
C        1.5156377166   -1.1928646973    0.3818408038
C        3.7219663395   -0.3814695332   -0.6292212033
C        0.3488042184    0.5901718588    1.6513406837
C        2.3296303971   -0.6024795360    2.6341083650
N        4.3741048070   -0.1126235608    0.5161220552
N        1.5165468389   -0.2805313887    1.4503319888
H        1.1580837567   -3.7465988292   -2.5522640347
H       -0.6048763827   -3.6053967407   -0.8135996997
H        5.7522169924    1.2570655421   -2.8521331577
H        6.8834165109    1.7873055387   -0.6782216898
H        3.1226831801   -2.2989987455   -2.4272374907
H       -0.3773118308   -1.9863965063    1.0264431187
H        3.7121308730   -0.1537614722   -2.7797320461
H        5.9746800023    0.8811812450    1.4120071633
H       -0.1863557442    0.7358553045    0.7075089883
H        0.6709387634    1.5715799608    2.0123745470
H       -0.3374410588    0.1453828996    2.3789078340
H        2.9244692341    0.2663254308    2.9312639604
H        3.0095400119   -1.4339433780    2.4230569450
H        1.6841090783   -0.8997346393    3.4661923831
29   

C        1.2844842269   -3.0953163656   -1.7011520472
C        0.2669739752   -2.9837016541   -0.7616649029
C        5.2411621985    0.9912403377   -1.8635459609
C        5.9993752676    1.1148642453   -0.7085076024
C        2.4028460408   -2.2678633010   -1.6068172691
C        0.3737146078   -2.0372226764    0.2578569100
C        4.1016054032    0.1977650219   -1.7948630346
C        5.6039730518    0.4392580248    0.4482575946
C        2.5493869017   -1.3370278212   -0.5557260853
C        1.4956787001   -1.1978159683    0.3785327543
C        3.7216987453   -0.4154451732   -0.5864324380
C        0.2982568580    0.5905227110    1.6171089868
C        2.3508113916   -0.4868129647    2.5839036848
N        4.5030828741   -0.3228282442    0.5039589801
N        1.4901556055   -0.2470307396    1.4141250100
H        1.2092879670   -3.8212957959   -2.5027864714
H       -0.6059999099   -3.6235255980   -0.8223550761
H        5.5239393234    1.4941559024   -2.7825357608
H        6.8956542637    1.7217987533   -0.6945730284
H        3.1851635446   -2.3656202333   -2.3510841583
H       -0.4277640841   -1.9559478904    0.9800656889
H        3.4774099326    0.0712539736   -2.6696052771
H        6.2135498602    0.5319958446    1.3393894756
H       -0.2403366660    0.7231746909    0.6732983084
H        0.5931103353    1.5804109041    1.9785188092
H       -0.3745705594    0.1268116380    2.3453548784
H        2.9846282691    0.3844710290    2.7730415706
H        2.9906377799   -1.3602636745    2.4238690531
H        1.7376560994   -0.6845937807    3.4684288644
29   

C        1.3351898278   -3.1701291254   -1.6678869935
C        0.2755797369   -3.0086701444   -0.7822990966
C        5.0955974503    1.1511194981   -1.7745994951
C        5.9893218052    1.0967064052   -0.7141545821
C        2.4564759057   -2.3488493360   -1.5562422344
C        0.3440942878   -2.0216843194    0.2029284568
C        3.9649143051    0.3462435002   -1.6946832331
C        5.7298009248    0.2432379674    0.3615139669
C        2.5583084555   -1.3783464323   -0.5403298445
C        1.4700021642   -1.1892996477    0.3425913224
C        3.7321844934   -0.4523649052   -0.5630165356
C        0.2223596142    0.5759016814    1.5803256218
C        2.4046213550   -0.3036316653    2.4600293584
N        4.6351801115   -0.5277637429    0.4298529536
N        1.4500901720   -0.1997673139    1.3440536364
H        1.2890839268   -3.9276910023   -2.4420028422
H       -0.6003979054   -3.6427912486   -0.8577851672
H        5.2707757603    1.7944089421   -2.6307132019
H        6.8873836820    1.7012034852   -0.7136443056
H        3.2729064063   -2.4711078679   -2.2594037753
H       -0.4896422902   -1.9098878639    0.8829708766
H        3.2358669486    0.3427749848   -2.4945591623
H        6.4437662819    0.1999344648    1.1755812724
H       -0.3381222944    0.6962557454    0.6477001867
H        0.4751541090    1.5743328018    1.9502582945
H       -0.4127254930    0.0711070692    2.3150859495
H        3.0615374092    0.5705625077    2.4823068151
H        3.0133488530   -1.2084244304    2.3691628794
H        1.8656667313   -0.3713622430    3.4099673689
29   

C        1.4145954953   -3.3262154004   -1.5416970598
C        0.3081619939   -3.0962329777   -0.7299056750
C        4.8838807227    1.4107865927   -1.4938236705
C        5.9160831508    1.1484363019   -0.6023913224
C        2.5252323041   -2.4886576907   -1.4447872606
C        0.3238060698   -2.0350544506    0.1790230273
C        3.7817499938    0.5642855192   -1.4569132717
C        5.8103936928    0.0669157471    0.2775568109
C        2.5532663036   -1.4205297239   -0.5308131465
C        1.4388224997   -1.1851560542    0.3065367206
C        3.7324648196   -0.4984879779   -0.5440002479
C        0.1361538714    0.5659637967    1.5235491687
C        2.4420132915   -0.0741052149    2.2907408848
N        4.7432194702   -0.7445978075    0.3071445598
N        1.3984742671   -0.1405373328    1.2533110655
H        1.4127214505   -4.1490463941   -2.2475203134
H       -0.5604745881   -3.7412132121   -0.7977362004
H        4.9332793208    2.2416997449   -2.1899506241
H        6.8015827447    1.7708852463   -0.5812812594
H        3.3821539404   -2.6613598858   -2.0865209630
H       -0.5408181067   -1.8876655579    0.8116426966
H        2.9427210298    0.7165761709   -2.1234379902
H        6.6252599835   -0.1259234708    0.9654260735
H       -0.4512275078    0.6610384067    0.6047358621
H        0.3426663433    1.5751556051    1.8932715840
H       -0.4514465660    0.0250675454    2.2719808629
H        3.0857751741    0.7955490070    2.1318294086
H        3.0516547467   -0.9826417536    2.2875014826
H        1.9823491865   -0.0037422257    3.2812891214
29   

C        1.5333689820   -3.5001194505   -1.3938037255
C        0.3801194951   -3.2094682069   -0.6713509728
C        4.7380194529    1.6211373879   -1.0372561593
C        5.8838916981    1.1685138526   -0.3964653542
C        2.6235566126   -2.6332478967   -1.3281661204
C        0.3362912610   -2.0700227629    0.1364912894
C        3.6578247573    0.7484812524   -1.0986390008
C        5.9010001767   -0.1124637216    0.1634570424
C        2.5690204850   -1.4542970481   -0.5644046727
C        1.4305544742   -1.1887652107    0.2332051341
C        3.7544909867   -0.5434834537   -0.5614832982
C        0.0697283567    0.5583917386    1.4014129721
C        2.4361515232    0.1013622672    2.1108505711
N        4.8546742695   -0.9487047579    0.0968684957
N        1.3595836050   -0.0931661965    1.1222194244
H        1.5845599616   -4.3934524910   -2.0057763578
H       -0.4740569408   -3.8751962726   -0.7192780628
H        4.6839341530    2.6152604889   -1.4687284890
H        6.7605075233    1.7988784395   -0.3177703614
H        3.5220638348   -2.8584898011   -1.8921932122
H       -0.5560975213   -1.8935541515    0.7209228473
H        2.7272788324    1.0473406029   -1.5639101639
H        6.7972477807   -0.4457274225    0.6734099155
H       -0.5355881882    0.6102633092    0.4908992140
H        0.2340935118    1.5823838786    1.7511286817
H       -0.4791370222    0.0045440390    2.1695836925
H        3.0131408685    1.0008673070    1.8784431297
H        3.1076473203   -0.7622206132    2.1320705284
H        2.0107660641    0.1971792820    3.1145444092
29   

C        1.5662781444   -3.5590089822   -1.3032340235
C        0.3887291798   -3.2337595022   -0.6385862576
C        4.7320435430    1.6504208915   -0.7793917113
C        5.9388396853    1.0903853333   -0.3826373717
C        2.6532713659   -2.6882015201   -1.2435094787
C        0.3202776684   -2.0589545251    0.1140012640
C        3.6308159217    0.8051098714   -0.8457961935
C        5.9950147114   -0.2681277364   -0.0582923556
C        2.5725415070   -1.4650597727   -0.5519680131
C        1.4116272999   -1.1728724273    0.2061564846
C        3.7603927920   -0.5630052642   -0.5562964852
C        0.0248297859    0.5877139600    1.3262070366
C        2.3795113295    0.1512447401    2.0818197077
N        4.9277628051   -1.0771936326   -0.1290380705
N        1.3221141312   -0.0608870389    1.0747459187
H        1.6394455968   -4.4820477856   -1.8669702721
H       -0.4636760393   -3.9019602676   -0.6834517487
H        4.6481683692    2.7040968401   -1.0244873173
H        6.8343959438    1.6947439327   -0.3138302692
H        3.5699159137   -2.9427173116   -1.7646613177
H       -0.5889819738   -1.8620477677    0.6648148988
H        2.6569687452    1.1846111283   -1.1283654941
H        6.9408873130   -0.6875282023    0.2639055321
H       -0.5726091219    0.6137507972    0.4094105110
H        0.1784952604    1.6207035742    1.6535403104
H       -0.5271505774    0.0477736108    2.1020802082
H        2.8861966523    1.1052310550    1.9102212098
H        3.1192288270   -0.6546257985    2.0534942303
H        1.9447360940    0.1523292148    3.0861065696
29   

C        1.6374819146   -3.5972117510   -1.2690611217
C        0.4314023174   -3.2600626955   -0.6675140500
C        4.7838900142    1.6450079076   -0.6281939429
C        6.0176813581    1.0338482852   -0.4536525444
C        2.7190612846   -2.7226540401   -1.1810097434
C        0.3291403064   -2.0695481619    0.0536869643
C        3.6641164541    0.8221502136   -0.6548859050
C        6.0844961840   -0.3540909090   -0.3064662700
C        2.6133393498   -1.4811213530   -0.5192632552
C        1.4142511182   -1.1789612701    0.1763363394
C        3.7949077585   -0.5726548544   -0.5330450299
C       -0.0230584465    0.5834334270    1.2304287078
C        2.2883304421    0.1345517187    2.1027619566
N        4.9995270539   -1.1416617424   -0.3372071845
N        1.2839292884   -0.0672021744    1.0404786475
H        1.7371744213   -4.5315020809   -1.8097306411
H       -0.4174082778   -3.9308448900   -0.7358700229
H        4.6942134100    2.7203893130   -0.7415051094
H        6.9278427280    1.6194522201   -0.4276957994
H        3.6511469055   -2.9912397181   -1.6667257312
H       -0.6037858826   -1.8652963260    0.5604292908
H        2.6767718079    1.2457088420   -0.7879229398
H        7.0542549237   -0.8159991192   -0.1629339652
H       -0.5826108470    0.5980557566    0.2897721754
H        0.1166009973    1.6202408815    1.5518170623
H       -0.6063747526    0.0519237269    1.9890554790
H        2.7485958795    1.1226149755    2.0107240188
H        3.0738907294   -0.6258538952    2.0552801605
H        1.8146203273    0.0507901215    3.0857532394
29   

C        1.6670490396   -3.6055803693   -1.2023013607
C        0.4436054212   -3.2516927562   -0.6526246212
C        4.8510400007    1.6376519636   -0.5206636729
C        6.0808472400    0.9981971241   -0.5728169335
C        2.7500358270   -2.7358247324   -1.0928424748
C        0.3246854990   -2.0477522032    0.0395264295
C        3.7158801641    0.8365180229   -0.4782652521
C        6.1305352571   -0.3972094578   -0.5811722008
C        2.6407901632   -1.4782233734   -0.4509408423
C        1.4099696900   -1.1605062222    0.1859902477
C        3.8225811650   -0.5678858160   -0.4941455884
C       -0.0589120852    0.6183349742    1.1682667332
C        2.1963614153    0.1313726661    2.1608098108
N        5.0313623952   -1.1640240481   -0.5426286053
N        1.2478377937   -0.0493308557    1.0449451669
H        1.7797724763   -4.5488155520   -1.7246035007
H       -0.4065151776   -3.9187045565   -0.7391605430
H        4.7748917399    2.7200258721   -0.5223346172
H        7.0009790934    1.5672495680   -0.6118850330
H        3.6844561362   -3.0303837416   -1.5581680363
H       -0.6247096101   -1.8304768499    0.5088457626
H        2.7381249660    1.2986763509   -0.4659687831
H        7.0982478433   -0.8831776710   -0.6231610938
H       -0.5787792429    0.6218201097    0.2049685314
H        0.0784883098    1.6591306539    1.4773498363
H       -0.6795498466    0.1060365676    1.9103614896
H        2.6209265095    1.1394359525    2.1405769151
H        3.0145296762   -0.5933813334    2.1072962312
H        1.6837419889   -0.0219266039    3.1155108696
29   

C        1.7008243253   -3.6229505525   -1.1358238587
C        0.4641382396   -3.2499389620   -0.6363574039
C        4.9329604891    1.6208476719   -0.4317559979
C        6.1295908309    0.9797993433   -0.7101586947
C        2.7865296729   -2.7592005405   -1.0102689422
C        0.3344053786   -2.0314639264    0.0235430746
C        3.7937826184    0.8319421813   -0.3177784771
C        6.1426694391   -0.4054257981   -0.8718746565
C        2.6785006656   -1.4835039619   -0.3918546848
C        1.4210212341   -1.1488034358    0.1879897535
C        3.8612798843   -0.5702685624   -0.4669861187
C       -0.0672813188    0.6611834308    1.0785036908
C        2.1022795127    0.1052588107    2.2186116526
N        5.0405885380   -1.1601828051   -0.7607882054
N        1.2288287336   -0.0372278074    1.0380832555
H        1.8228987338   -4.5769439511   -1.6360620126
H       -0.3881439531   -3.9122383603   -0.7367343658
H        4.8818465590    2.6991670968   -0.3223938747
H        7.0494031272    1.5409383124   -0.8152130544
H        3.7204436710   -3.0872386967   -1.4526966948
H       -0.6278271975   -1.7980175335    0.4577254787
H        2.8466456858    1.3243263133   -0.1576148193
H        7.0827701149   -0.8939954832   -1.0996914469
H       -0.5410289872    0.6461623719    0.0917792520
H        0.0783660858    1.7076205183    1.3636460588
H       -0.7341427563    0.1837986415    1.8036253502
H        2.4866957055    1.1274199891    2.2859936525
H        2.9529124692   -0.5812639865    2.1666960279
H        1.5414107822   -0.1273128538    3.1291442971
29   

C        1.7490011290   -3.5914530038   -1.0388933267
C        0.8238848958   -3.4812630928   -0.0163555890
C        5.2301598010    1.4970245615   -0.1297950188
C        6.0364409821    1.1600018808   -1.2032124032
C        2.6490783723   -2.5544511206   -1.2731711209
C        0.7821675554   -2.3138565625    0.7373768129
C        4.1211105067    0.6959574704    0.1204120140
C        5.7181042792    0.0406378808   -1.9683436240
C        2.6706005399   -1.3604149045   -0.4942375382
C        1.6638153730   -1.2388202536    0.5075315017
C        3.8096242397   -0.4083300550   -0.7081950655
C        0.9607739265    1.1247621784    0.4045445660
C        0.9839555125   -0.0758215050    2.6146739862
N        4.6464128405   -0.7251895002   -1.7228922329
N        1.3870377169   -0.0426211846    1.1983823793
H        1.7852622153   -4.4873962589   -1.6481881486
H        0.1243662143   -4.2861365878    0.1784327126
H        5.4635507807    2.3450054120    0.5056600542
H        6.9155973802    1.7438484685   -1.4443062669
H        3.3669623199   -2.7252193224   -2.0671516105
H        0.0088873258   -2.2286466128    1.4884974848
H        3.5433783434    0.9324841830    0.9970894449
H        6.3643918131   -0.2247701877   -2.7967428315
H        1.3040206743    1.0407837574   -0.6313433273
H        1.3773116855    2.0437731633    0.8280502037
H       -0.1313592972    1.1953464187    0.3978185087
H        1.3450619053    0.8199227302    3.1290833540
H        1.4156217074   -0.9481197648    3.1158072705
H       -0.1065986697   -0.1217679716    2.6984920014
