21   

C        0.9869301205   -5.3995267353   -1.6626117258
C        0.6623991043   -4.1892911829   -0.9514968334
C        1.7443785517   -5.0188767649   -2.7336482970
C        1.2475867850   -3.1610821226   -1.6450271024
C       -0.6472406905   -0.6645806548    1.3194332067
C        0.5962538784   -1.1149995879   -0.3966658245
C        0.3720731225    0.3576408570   -0.3744605362
C        1.2538846687   -1.7559778712   -1.4015432342
C       -1.0330764639    1.8329957025    1.0946260351
N       -0.0866600136   -1.6694213960    0.6808804094
N       -0.3773773877    0.5844339710    0.7496306976
O        0.7410419994    1.2035782296   -1.1793787831
O        1.9144227743   -3.6576292385   -2.7401914232
H        0.6934868221   -6.4107492021   -1.4061636192
H        0.0724164685   -4.1068117697   -0.0464130294
H        2.1551846410   -5.6930989190   -3.4763369194
H       -1.2629288089   -0.7987174963    2.2021934362
H        1.7603742239   -1.1435426456   -2.1379716681
H       -0.6399062994    2.2143938167    2.0422296830
H       -2.1139221108    1.6849766890    1.1827098446
H       -0.8549947446    2.5866394034    0.3203635924
21   

C        0.8559883327   -5.3670913254   -1.6851744465
C        0.6479972280   -4.1637729320   -0.9205542663
C        1.6248475993   -5.0083905810   -2.7558072488
C        1.3064519106   -3.1616079288   -1.5854559118
C       -0.4822197049   -0.6633057164    1.4139586068
C        0.8021873572   -1.1112425212   -0.2722271065
C        0.4293068800    0.3303956923   -0.3545583956
C        1.4309071601   -1.7736747619   -1.2847011590
C       -1.1411876751    1.7476641844    0.9946105606
N        0.1709336776   -1.6524733284    0.8424418059
N       -0.3320902673    0.5649258548    0.7601775582
O        0.6924198414    1.1420478021   -1.2329911939
O        1.9101999318   -3.6672584410   -2.7124589779
H        0.4818417650   -6.3595890297   -1.4628855736
H        0.0833976428   -4.0675525607   -0.0007099701
H        1.9638272363   -5.6839129916   -3.5327854716
H       -1.0859167339   -0.7955930086    2.3052448219
H        1.9370307040   -1.1746058725   -2.0322279458
H       -0.8033478883    2.2597407978    1.9010139575
H       -2.1954074706    1.4743374966    1.1034824542
H       -1.0559520176    2.4443796929    0.1540751188
21   

C        0.7124345772   -5.2834320516   -1.6974314686
C        0.6184684683   -4.0959864685   -0.8866749496
C        1.5100800836   -4.9572247481   -2.7575929880
C        1.3663218904   -3.1354582557   -1.5167937143
C       -0.3290092721   -0.6510404714    1.5023063068
C        1.0058002891   -1.0853992945   -0.1486029560
C        0.4940349058    0.3063717656   -0.3267242887
C        1.6121981255   -1.7785435713   -1.1590769205
C       -1.2279728085    1.6414936159    0.9127326279
N        0.4150012263   -1.6107502780    0.9952352689
N       -0.2884817041    0.5429310961    0.7730217976
O        0.6676385778    1.0717010778   -1.2668022682
O        1.9196787775   -3.6512654193   -2.6646626283
H        0.2477692062   -6.2446554107   -1.5114432794
H        0.0677317650   -3.9810064020    0.0394679436
H        1.7832321546   -5.6309460331   -3.5616040765
H       -0.9260233150   -0.7829600938    2.3981420928
H        2.1376818224   -1.1989712160   -1.9084826463
H       -0.9570542430    2.2592642991    1.7746045314
H       -2.2454915033    1.2605082155    1.0449401017
H       -1.2160121766    2.2740503173    0.0189065067
21   

C        0.5160406595   -5.1784611184   -1.6703488198
C        0.5044256634   -3.9983865246   -0.8434269499
C        1.3619348441   -4.9064877299   -2.7085460984
C        1.3441150094   -3.0970365077   -1.4433762583
C       -0.3222585974   -0.5994985440    1.5288818021
C        1.0756868698   -1.0277041158   -0.0717171257
C        0.4170229356    0.2822662609   -0.3704041882
C        1.6839460228   -1.7716044945   -1.0516367383
C       -1.4607590954    1.5159683047    0.7348725919
N        0.5209117984   -1.5168535959    1.1054856217
N       -0.3940615076    0.5306409771    0.7058698705
O        0.5064159381    0.9709882143   -1.3789567345
O        1.8789104156   -3.6416416688   -2.5864205566
H       -0.0321408355   -6.0993994152   -1.5096129429
H       -0.0534817282   -3.8472834914    0.0732832679
H        1.5944494158   -5.5894407465   -3.5175375460
H       -0.9162451644   -0.7204922024    2.4282729058
H        2.2466837853   -1.2258582153   -1.7991522616
H       -1.2175411706    2.3099319875    1.4478497830
H       -2.4071254280    1.0483657201    1.0242729733
H       -1.5955664489    1.9670237853   -0.2538849125
21   

C        0.3697992500   -5.0447183958   -1.6816900163
C        0.4468043915   -3.8841384502   -0.8307868886
C        1.2738048441   -4.8400795731   -2.6862980391
C        1.3912458149   -3.0616969828   -1.3850152902
C       -0.1997034184   -0.5671226464    1.5791713212
C        1.2376625466   -0.9847000124    0.0090996324
C        0.4558159913    0.2319351040   -0.3854946546
C        1.8321126564   -1.7846952275   -0.9451805925
C       -1.5264550616    1.3693925038    0.6366324846
N        0.7222635981   -1.4344452721    1.2194341119
N       -0.3727652705    0.4877934632    0.6755568536
O        0.4710574103    0.8388478900   -1.4488901889
O        1.9102478709   -3.6361240472   -2.5202967295
H       -0.2724287401   -5.9089994116   -1.5590630423
H       -0.1224217836   -3.6913847342    0.0711315239
H        1.4642375611   -5.5276807393   -3.5023253041
H       -0.7820802757   -0.6749371370    2.4877894948
H        2.4563506935   -1.2810876363   -1.6728202678
H       -1.3588634678    2.2336952876    1.2868324757
H       -2.4257845249    0.8392886288    0.9655510680
H       -1.7012817876    1.7307748629   -0.3822418237
21   

C        0.2170732961   -4.8816642545   -1.7088128565
C        0.3654649094   -3.7407518645   -0.8407502979
C        1.1971011638   -4.7692075728   -2.6554817119
C        1.4236587846   -3.0222743123   -1.3284251283
C       -0.0884128808   -0.5192570195    1.6282811518
C        1.3705463739   -0.9368443984    0.0757612392
C        0.4795648465    0.1738478845   -0.4017708267
C        1.9564145187   -1.8024124756   -0.8388931430
C       -1.5840558734    1.2164819797    0.5575413352
N        0.8996973227   -1.3326830597    1.3224582761
N       -0.3575198051    0.4436658420    0.6490045407
O        0.4248831870    0.6861412424   -1.5125271063
O        1.9486031434   -3.6425568453   -2.4360427774
H       -0.5200538953   -5.6727689704   -1.6361662568
H       -0.2312991432   -3.4911385552    0.0288447556
H        1.3611028568   -5.4675372601   -3.4681246367
H       -0.6527131029   -0.6047983464    2.5505807662
H        2.6781640797   -1.3624679038   -1.5152300736
H       -1.4888910593    2.1392425939    1.1383288123
H       -2.4319449846    0.6372862938    0.9364508664
H       -1.7954880339    1.4827071439   -0.4834736118
21   

C        1.4877321966   -4.8686218241   -0.8818179028
C        0.6128852420   -3.7332040088   -0.7311136730
C        2.0536745480   -4.7507813383   -2.1208046914
C        0.7162964637   -3.0122420054   -1.8901488739
C       -1.5828054764   -0.5308026548    0.5246915473
C       -0.6030344879   -0.9354071219   -1.3703107843
C        0.1360089879    0.1789943531   -0.6868959029
C        0.0701854652   -1.7958744620   -2.2280776442
C       -0.0900302717    1.2164908294    1.5811567194
N       -1.6188678862   -1.3406268992   -0.5118443464
N       -0.5756440731    0.4381311942    0.4550180831
O        1.1971175974    0.7003007635   -1.0054818258
O        1.5898938689   -3.6259019353   -2.7546750120
H        1.6692553868   -5.6598013488   -0.1637896472
H       -0.0100773594   -3.4887589408    0.1213986563
H        2.7696361771   -5.4441298714   -2.5469703226
H       -2.2636827803   -0.6232144858    1.3638883713
H        0.4651328663   -1.3523353836   -3.1331705648
H       -0.0592770525    0.6026896278    2.4868227805
H       -0.7427354275    2.0786806308    1.7497416396
H        0.9228552350    1.5848073373    1.3871180002
21   

C        1.4121957530   -5.0291701088   -1.0121228589
C        0.5751604736   -3.8747736746   -0.8032187032
C        2.0602846259   -4.8192541415   -2.1971220949
C        0.7801961687   -3.0503278531   -1.8773973169
C       -1.5022679176   -0.5762821741    0.6084072882
C       -0.4997111440   -0.9820044112   -1.2722678490
C        0.1227949196    0.2391478024   -0.6657930227
C        0.2101529669   -1.7775071887   -2.1482907439
C       -0.1852205234    1.3677632173    1.5485593636
N       -1.4654407249   -1.4404730127   -0.3832710341
N       -0.5997802139    0.4847747348    0.4723791690
O        1.1147766554    0.8545963619   -1.0353869453
O        1.6844873165   -3.6178244819   -2.7425148909
H        1.5148653511   -5.8930420649   -0.3658567695
H       -0.0895701584   -3.6874403092    0.0320308363
H        2.7726508804   -5.5014400551   -2.6466943013
H       -2.1632773613   -0.6907793014    1.4606550478
H        0.6864194382   -1.2707955112   -2.9784565155
H       -0.0767469650    0.8083691638    2.4830601737
H       -0.9241147176    2.1633247614    1.6861075501
H        0.7797265153    1.8309139724    1.3170586205
21   

C        1.3529818212   -5.1662554100   -1.1501188407
C        0.5693414302   -3.9913283979   -0.8637982493
C        2.0507346929   -4.8885522562   -2.2917568777
C        0.8517395550   -3.0869288566   -1.8536782967
C       -1.4108183758   -0.6093834058    0.7089643358
C       -0.3656152898   -1.0257486745   -1.1444385405
C        0.1265429533    0.2864747633   -0.6203466616
C        0.3619542210   -1.7641407228   -2.0437778789
C       -0.2992430392    1.5134958570    1.5217061411
N       -1.2878468250   -1.5228316407   -0.2302952060
N       -0.6168593700    0.5253153974    0.5057867250
O        1.0423329126    0.9824411922   -1.0404363389
O        1.7564822109   -3.6249484831   -2.7375154711
H        1.3885336484   -6.0877228833   -0.5808201703
H       -0.1117349508   -3.8456353034   -0.0335404231
H        2.7412601970   -5.5666420437   -2.7799407804
H       -2.0600764162   -0.7364832563    1.5684230690
H        0.8773597192   -1.2146133554   -2.8220260739
H       -0.1482439538    1.0304192125    2.4921837837
H       -1.1115858989    2.2424838084    1.6023103281
H        0.6201071445    2.0495730839    1.2635624246
21   

C        1.2993037293   -5.2840966615   -1.2888735960
C        0.5805749404   -4.0916006361   -0.9180060481
C        2.0329208665   -4.9570284472   -2.3940629734
C        0.9329913072   -3.1275586062   -1.8264823296
C       -1.3124507813   -0.6384849978    0.8059352050
C       -0.2117997234   -1.0708853665   -1.0099081261
C        0.1433734913    0.3136965119   -0.5769861681
C        0.5281145290   -1.7653216447   -1.9262473973
C       -0.4278526518    1.6382373572    1.4728582769
N       -1.0957240350   -1.5939070199   -0.0726616092
N       -0.6267912191    0.5505008484    0.5314041211
O        0.9788647504    1.0734667643   -1.0506090312
O        1.8220574600   -3.6458349978   -2.7379621057
H        1.2698357142   -6.2490578803   -0.7964944011
H       -0.1050366071   -3.9756818661   -0.0868723511
H        2.6907083533   -5.6337787107   -2.9272318179
H       -1.9563288829   -0.7702062843    1.6687341203
H        1.0633382271   -1.1856091059   -2.6686192117
H       -0.2347726005    1.2457449496    2.4761751106
H       -1.3149804049    2.2787108649    1.4986128054
H        0.4305544978    2.2506958841    1.1775008417
21   

C        1.2379692134   -5.3677453632   -1.4172220748
C        0.6013615634   -4.1607106106   -0.9549625748
C        1.9907234997   -5.0094074076   -2.4993600237
C        1.0163809081   -3.1569433341   -1.7917405895
C       -1.1781016312   -0.6537177928    0.9206286253
C       -0.0276395550   -1.1017953994   -0.8594618085
C        0.1912724025    0.3351383300   -0.5257167381
C        0.7064479559   -1.7654612311   -1.7974803978
C       -0.5318259966    1.7453400411    1.4189074819
N       -0.8703989311   -1.6407156294    0.1064837082
N       -0.6004990811    0.5711474374    0.5673786379
O        0.9393065262    1.1422842521   -1.0629471700
O        1.8684063729   -3.6650554619   -2.7436865986
H        1.1439417248   -6.3623425042   -0.9972384190
H       -0.0733000487   -4.0631925115   -0.1126636562
H        2.6005859199   -5.6874098141   -3.0852891940
H       -1.8152028220   -0.7853237187    1.7884566497
H        1.2462132839   -1.1669764077   -2.5215732895
H       -0.3105774632    1.4567775883    2.4512467443
H       -1.4828617729    2.2862535346    1.3892877419
H        0.2596524717    2.4212610999    1.0785097616
21   

C        1.1764998142   -5.4046312890   -1.5229422760
C        0.6274401365   -4.1931127420   -0.9693831864
C        1.9339867435   -5.0233807453   -2.5937445150
C        1.0934483572   -3.1636478955   -1.7463287572
C       -1.0384997006   -0.6665978796    1.0522025288
C        0.1563502290   -1.1150645550   -0.6984757139
C        0.2236640411    0.3550584044   -0.4688024552
C        0.8749749127   -1.7572185426   -1.6600501781
C       -0.6642577491    1.8224174016    1.3649855194
N       -0.6336838000   -1.6697385927    0.3029163298
N       -0.5836375099    0.5821179624    0.6145337083
O        0.8674564851    1.1993242796   -1.0790362905
O        1.8958282072   -3.6605719742   -2.7462582340
H        1.0240743720   -6.4170546276   -1.1676796553
H       -0.0257604760   -4.1106072166   -0.1088093680
H        2.4888499915   -5.6982683594   -3.2352868167
H       -1.6633080710   -0.8018390219    1.9283647453
H        1.4038806717   -1.1447899862   -2.3805471115
H       -0.4214198720    1.6483270003    2.4178981229
H       -1.6723354167    2.2420365550    1.2894293710
H        0.0453142169    2.5569592218    0.9698609248
21   

C        1.0841415650   -5.4207244490   -1.6015038695
C        0.6438777648   -4.2067347673   -0.9627687800
C        1.8393127877   -5.0340026302   -2.6719163640
C        1.1653278767   -3.1702927764   -1.6940472391
C       -0.8618888096   -0.6730896261    1.1899481371
C        0.3671646459   -1.1233858263   -0.5374079831
C        0.2901810185    0.3585149198   -0.4129051289
C        1.0559224634   -1.7584923616   -1.5241054217
C       -0.7862207871    1.8642645550    1.2893886119
N       -0.3686507411   -1.6815823528    0.5033174991
N       -0.5202968753    0.5791671133    0.6688470319
O        0.8211881331    1.2179737659   -1.1049668096
O        1.9006223090   -3.6654844548   -2.7451653381
H        0.8648317102   -6.4382704499   -1.2999278867
H        0.0227945091   -4.1276728830   -0.0784461173
H        2.3237443795   -5.7090559796   -3.3680115637
H       -1.4748092660   -0.8065311285    2.0747295244
H        1.5715862260   -1.1424756147   -2.2511361361
H       -0.5300716796    1.8341438602    2.3530260131
H       -1.8433963090    2.1247209242    1.1769633258
H       -0.1858791371    2.6490738647    0.8173198247
