27   

C       -1.6593330727   -0.4133552518    1.7487438195
C       -0.5849390444   -0.6254162977    0.8657441744
C       -2.4633988159   -1.4907451995    2.1525813592
C       -0.3101615993   -1.9135810251    0.3831653579
C       -2.1789637598   -2.7713305714    1.6663486841
C       -1.1216965675   -2.9713741479    0.7980758527
C       -2.8842474595   -4.0204123677    1.9706867746
C       -2.2416826896   -7.1384680975    2.7179635747
C       -2.7253462448   -8.2178324353    3.4071552909
C       -2.8697131865   -6.4889223063    1.5006027502
C       -3.6649704999   -8.2393293566    4.5758054572
N       -2.3453870332   -5.1457459849    1.3859948558
O       -3.8742009278   -4.0699446468    2.6867275173
O       -1.3416649587   -4.9652729637   -1.0488841910
O        0.2264007492   -5.3419592352    0.8257056554
S       -1.0255419228   -4.7216468072    0.3663106766
Br      -2.7333333651   -8.8261011651    6.2247715268
H       -1.8673610704    0.5840864011    2.1204568272
H        0.0352128019    0.2084349376    0.5561683372
H       -3.2947450287   -1.3431731318    2.8352767299
H        0.5176868654   -2.0869814507   -0.2983767202
H       -1.1585391160   -7.0633277023    2.6964710369
H       -1.9766502266   -8.9960595865    3.5192793846
H       -2.6335005045   -7.0694729126    0.6014687327
H       -3.9607030432   -6.4684821027    1.6041331445
H       -4.5023013959   -8.9113474562    4.3657345669
H       -4.0697977301   -7.2346352813    4.7352704187
27   

C       -1.6973585956   -0.5310372880    1.9749546201
C       -0.6662490981   -0.6359373203    1.0237036199
C       -2.4514459278   -1.6620383296    2.3260222413
C       -0.3844521422   -1.8702839240    0.4203662170
C       -2.1615962323   -2.8883837030    1.7184017016
C       -1.1457615575   -2.9824815840    0.7846027905
C       -2.8211798197   -4.1790055710    1.9454851582
C       -2.0467048257   -7.2578584616    2.4638357716
C       -2.6513860754   -8.1200049121    3.3244266904
C       -2.7363604555   -6.6033213883    1.2859784176
C       -3.6231053601   -7.7431052720    4.4029102130
N       -2.3048292707   -5.2263044575    1.2146994290
O       -3.7596998990   -4.3262039941    2.7159147015
O       -1.3822519311   -4.8109659572   -1.2233879283
O        0.2511889558   -5.3148385772    0.5624818638
S       -1.0269905396   -4.6849571015    0.1979481608
Br      -2.8999398341   -8.2024198565    6.1903278312
H       -1.9108838242    0.4253530416    2.4396910342
H       -0.0851523754    0.2390565070    0.7544979721
H       -3.2494919462   -1.5965491832    3.0592809212
H        0.4098962987   -1.9614190045   -0.3149661327
H       -0.9938710247   -7.4458451624    2.2769978172
H       -2.0383739661   -8.9730967545    3.5981741369
H       -2.4660532906   -7.1261251228    0.3613586475
H       -3.8253529593   -6.6655065767    1.3939046409
H       -4.5722996927   -8.2633792533    4.2448252509
H       -3.8177699713   -6.6659942951    4.3620335960
27   

C       -1.7310350557   -0.5682632706    2.0081642189
C       -0.7074681652   -0.6644476626    1.0479095275
C       -2.4760003412   -1.7044701690    2.3615365970
C       -0.4241093919   -1.8952788846    0.4379590864
C       -2.1842835920   -2.9271760770    1.7474694320
C       -1.1761103746   -3.0129784617    0.8048576402
C       -2.8337276101   -4.2221200407    1.9773958208
C       -1.9698437133   -7.3268292010    2.4280738735
C       -2.5490292786   -8.0933561616    3.3796831040
C       -2.7368325766   -6.6469510953    1.3158672500
C       -3.5952139010   -7.6188412301    4.3421323613
N       -2.3077997532   -5.2683017036    1.2518214940
O       -3.7741883358   -4.3719085431    2.7446644315
O       -1.4354285938   -4.8394063885   -1.2017488264
O        0.2374227937   -5.3322979492    0.5501206105
S       -1.0535653901   -4.7134989458    0.2127037491
Br      -3.0243911444   -7.9532252076    6.2101227132
H       -1.9456349610    0.3852638829    2.4782854397
H       -0.1333626313    0.2146137927    0.7769826613
H       -3.2678763850   -1.6458910329    3.1020653644
H        0.3645180750   -1.9795547969   -0.3042868266
H       -0.9407180968   -7.5647507049    2.1773694572
H       -1.9319561581   -8.9031882702    3.7562541864
H       -2.5279829746   -7.1457668199    0.3625320553
H       -3.8167201093   -6.7129999313    1.4916919594
H       -4.5384523516   -8.1380167994    4.1489564440
H       -3.7666714125   -6.5459849854    4.2083750176
27   

C       -1.7179366116   -0.5735020146    2.0086285404
C       -0.6833864266   -0.6719356806    1.0604832397
C       -2.4717138218   -1.7073347532    2.3502182159
C       -0.3977502027   -1.9027173221    0.4512028325
C       -2.1771255809   -2.9298927275    1.7371682510
C       -1.1584200567   -3.0183317918    0.8066726869
C       -2.8331931159   -4.2225975295    1.9585849949
C       -1.9139682684   -7.3823695393    2.3238916754
C       -2.4306474994   -8.0452002873    3.3765805128
C       -2.7408742559   -6.6487247590    1.2927283878
C       -3.5128365205   -7.5291997523    4.2711740701
N       -2.2874318692   -5.2758347563    1.2577849064
O       -3.7976469766   -4.3610838145    2.6972657341
O       -1.4254344971   -4.8447991276   -1.1982608894
O        0.2569364657   -5.3359799283    0.5444307522
S       -1.0368817436   -4.7190967956    0.2144243915
Br      -2.9942590056   -7.7389383149    6.1718145181
H       -1.9340603048    0.3796919040    2.4787638847
H       -0.1024815988    0.2053887384    0.7986126720
H       -3.2717947098   -1.6473369985    3.0818004968
H        0.3994134814   -1.9885419766   -0.2816437643
H       -0.9200405345   -7.6753364119    2.0002455072
H       -1.7946266090   -8.8119302351    3.8078321843
H       -2.6037040312   -7.1109761345    0.3084623582
H       -3.8084111082   -6.7048412080    1.5345687630
H       -4.4405854035   -8.0774866295    4.0836054766
H       -3.6984241116   -6.4705652864    4.0692672377
27   

C       -1.9746327541   -0.7051135548    2.1278088339
C       -0.7381294151   -0.8435076534    1.4714469642
C       -2.8418588780   -1.8033822795    2.2363746914
C       -0.3632922632   -2.0791598727    0.9232909194
C       -2.4575927358   -3.0302419915    1.6851674512
C       -1.2402577673   -3.1586602478    1.0433250881
C       -3.2052721347   -4.2911374933    1.7031475995
C       -2.1571289470   -7.5717021588    2.0648653072
C       -2.3978157972   -7.7584959459    3.3742464612
C       -3.0106001597   -6.7364544473    1.1307532560
C       -3.0757600150   -6.7780394567    4.2713249015
N       -2.5450316878   -5.3655510928    1.1467633790
O       -4.3344235714   -4.3878943069    2.1644686564
O       -1.0815234520   -4.9399781900   -1.0059817433
O        0.1087637347   -5.5288159680    1.0749199394
S       -1.0476483919   -4.8570631485    0.4623837308
Br      -1.7881036825   -5.3828862228    4.8456836494
H       -2.2588378211    0.2507491120    2.5540388196
H       -0.0693419061    0.0059379902    1.3898635299
H       -3.7970185344   -1.7140950243    2.7446219682
H        0.5904697069   -2.1971934939    0.4172899188
H       -1.4570678811   -8.2514711324    1.5906233809
H       -1.9066062109   -8.5941741849    3.8614050976
H       -2.9492942163   -7.1353661493    0.1120189591
H       -4.0618779569   -6.7927183151    1.4350911227
H       -3.4542008376   -7.2967026058    5.1572939619
H       -3.9304552989   -6.3180361835    3.7676714839
27   

C       -1.9824699574   -0.6791605028    2.1361285998
C       -0.7310973295   -0.8400343222    1.5139928205
C       -2.8600434501   -1.7688968939    2.2459730819
C       -0.3521171068   -2.0894901398    1.0007681360
C       -2.4708784404   -3.0097111086    1.7306230599
C       -1.2398340661   -3.1602173625    1.1209451113
C       -3.2258456125   -4.2655692424    1.7606048601
C       -2.2348967566   -7.6262595508    2.0767802459
C       -2.3187894407   -7.6971203570    3.4142937828
C       -3.0630308951   -6.7144554534    1.1926525079
C       -2.9906768944   -6.6989378142    4.2918111794
N       -2.5512656509   -5.3612147263    1.2656011724
O       -4.3697851767   -4.3422669482    2.1880002823
O       -1.0728476156   -4.9894151768   -0.8851135853
O        0.1036706364   -5.5323871723    1.2162432427
S       -1.0473144716   -4.8725911217    0.5812029020
Br      -1.6900350032   -5.3144769036    4.8615820190
H       -2.2699999519    0.2872618667    2.5355094506
H       -0.0540035842    0.0027677721    1.4321183434
H       -3.8264722314   -1.6625976050    2.7290537070
H        0.6131890138   -2.2247470317    0.5217390408
H       -1.6186576598   -8.3648433653    1.5751872276
H       -1.7879093550   -8.5031452642    3.9097231911
H       -3.0242222960   -7.0673155127    0.1559310993
H       -4.1131113716   -6.7503233721    1.5040074087
H       -3.3790743488   -7.2040528183    5.1812741497
H       -3.8400570769   -6.2353768576    3.7835425298
27   

C       -2.0084019019   -0.7522402091    1.9731363405
C       -0.7347619239   -0.9230988915    1.4008550793
C       -2.8864899297   -1.8421427743    2.0758691517
C       -0.3341378457   -2.1826674376    0.9303556841
C       -2.4753339656   -3.0929804175    1.6037287394
C       -1.2228890705   -3.2534409695    1.0424909676
C       -3.2266321529   -4.3506070851    1.6371184233
C       -2.2692075878   -7.7437422477    1.9987581456
C       -2.2338723811   -7.6932647892    3.3386759876
C       -3.0522741555   -6.8047697322    1.1019614710
C       -2.9553844133   -6.7084033778    4.1876168472
N       -2.5283447298   -5.4574984997    1.2033323875
O       -4.3863557588   -4.4205533130    2.0209222376
O       -0.9916369371   -5.1302378856   -0.9125941108
O        0.1280297880   -5.6158852065    1.2335440580
S       -1.0075550627   -4.9776741785    0.5506177087
Br      -1.7076634877   -5.2869990768    4.7833580631
H       -2.3127706335    0.2219462506    2.3398533358
H       -0.0572289406   -0.0801198665    1.3247574800
H       -3.8699912850   -1.7283588527    2.5213553108
H        0.6484542624   -2.3255521628    0.4903079715
H       -1.6943324048   -8.5239573215    1.5113722043
H       -1.6521501765   -8.4505772588    3.8535219803
H       -2.9848140997   -7.1459361885    0.0627556666
H       -4.1124218665   -6.8316035038    1.3781248052
H       -3.3521929480   -7.2184326965    5.0705255100
H       -3.8051250714   -6.2716977542    3.6569748935
27   

C       -1.9603452552   -0.3548638110    1.7552216273
C       -0.6739507390   -0.5417624827    1.2175258996
C       -2.8398452862   -1.4421898070    1.8718315433
C       -0.2619929306   -1.8148178562    0.7955616425
C       -2.4172866602   -2.7064717818    1.4481310719
C       -1.1524445620   -2.8827406162    0.9206259420
C       -3.1681528535   -3.9634500548    1.5039515962
C       -2.2552179313   -7.3651411131    1.9663081283
C       -2.1016192111   -7.1818079637    3.2863494365
C       -2.9901478444   -6.4281046657    1.0259263298
C       -2.8697100749   -6.2190266955    4.1176706388
N       -2.4592174131   -5.0829386055    1.1228543047
O       -4.3360371059   -4.0234185981    1.8639545168
O       -0.8784365741   -4.8199318608   -0.9690141581
O        0.1958240824   -5.2362259877    1.2146861862
S       -0.9253878786   -4.6213104355    0.4880138250
Br      -1.6850155091   -4.7433955011    4.7094635007
H       -2.2735435509    0.6297959670    2.0846291291
H        0.0046415622    0.2993247970    1.1307561074
H       -3.8331938924   -1.3160329933    2.2913908419
H        0.7304747555   -1.9700352066    0.3827107016
H       -1.7149922365   -8.1882463048    1.5109259183
H       -1.4638887051   -7.8817608151    3.8158870419
H       -2.8856246830   -6.7863690682   -0.0044580264
H       -4.0606355291   -6.4411742783    1.2600289175
H       -3.2525776104   -6.7357706778    5.0028218049
H       -3.7318132087   -5.8222160522    3.5752934189
27   

C       -2.0010833738   -0.5283494748    1.8594648983
C       -0.7087172563   -0.7163715811    1.3367090900
C       -2.8867357068   -1.6126199089    1.9547464420
C       -0.2972440151   -1.9873649682    0.9078062943
C       -2.4642519670   -2.8747677198    1.5247135202
C       -1.1941725623   -3.0522407629    1.0109341031
C       -3.2209368578   -4.1286396542    1.5605901009
C       -2.4339083145   -7.5649492623    1.9927746249
C       -2.1354359815   -7.3151813326    3.2784786854
C       -3.0652661811   -6.5799642881    1.0241176187
C       -2.8704591038   -6.3674081115    4.1556929217
N       -2.5117289422   -5.2496349762    1.1837659556
O       -4.3937506264   -4.1850798624    1.9048612242
O       -0.9173856274   -4.9729249234   -0.8950465574
O        0.1417050881   -5.4153312950    1.2908565019
S       -0.9720330792   -4.7878843501    0.5635296124
Br      -1.6636783448   -4.9081955191    4.7432148968
H       -2.3141705431    0.4546270424    2.1939894834
H       -0.0252263581    0.1223031660    1.2668264602
H       -3.8847722019   -1.4858961267    2.3628974055
H        0.6997494661   -2.1433264703    0.5063562658
H       -1.9793345557   -8.4429704015    1.5466173592
H       -1.4768516754   -8.0173217084    3.7788129594
H       -2.8963768938   -6.9207355050   -0.0037334662
H       -4.1502473062   -6.5670658301    1.1776948441
H       -3.2265244007   -6.9022279682    5.0412911035
H       -3.7478774116   -5.9573514321    3.6482011755
27   

C       -2.0837633377   -0.4478361514    1.9526622997
C       -0.7878210736   -0.6395985691    1.4402472746
C       -2.9868743357   -1.5205498957    2.0026353410
C       -0.3904313418   -1.9026239979    0.9757418498
C       -2.5781217468   -2.7748366265    1.5378021785
C       -1.3048200564   -2.9560370548    1.0332499822
C       -3.3531136030   -4.0177398789    1.5285282949
C       -2.7331514256   -7.4575460379    1.9556633202
C       -2.2824635722   -7.1638540464    3.1889700416
C       -3.2287078952   -6.4540594694    0.9251220536
C       -2.9451420919   -6.2134980658    4.1228458576
N       -2.6556920446   -5.1377972476    1.1279419289
O       -4.5288629552   -4.0677752210    1.8637173212
O       -1.0418355622   -4.8212332262   -0.9293438337
O       -0.0062351962   -5.3480557477    1.2487943902
S       -1.1044772432   -4.6804466039    0.5338197379
Br      -1.6767329425   -4.7926664375    4.6722865407
H       -2.3860273112    0.5287570056    2.3147160052
H       -0.0906111036    0.1899338321    1.4061790634
H       -3.9877137747   -1.3914033662    2.4031067355
H        0.6092970381   -2.0614461286    0.5823712396
H       -2.3940361787   -8.4002235248    1.5398762433
H       -1.6230452711   -7.8885578932    3.6548945565
H       -2.9747888466   -6.8092448590   -0.0801564779
H       -4.3224259205   -6.4030399987    0.9713895438
H       -3.2668135580   -6.7562052532    5.0167791752
H       -3.8376963097   -5.7750675225    3.6675701747
27   

C       -2.2743693456   -0.6511550279    1.8374743438
C       -0.9921959561   -0.8231439400    1.2849896584
C       -3.1777859514   -1.7242163496    1.8668039218
C       -0.6092293967   -2.0663833066    0.7587566069
C       -2.7830259066   -2.9588279718    1.3412496929
C       -1.5238091603   -3.1205564943    0.7960015102
C       -3.5582295323   -4.2008777475    1.3070399468
C       -3.1309207005   -7.5813606233    1.7597626086
C       -2.5016044253   -7.2935892970    2.9190447598
C       -3.4490403754   -6.6155622683    0.6299927328
C       -2.9889088981   -6.3056740845    3.9238525774
N       -2.8701226671   -5.3057108271    0.8526510869
O       -4.7238895647   -4.2646322994    1.6737943420
O       -1.3318240127   -4.9076430649   -1.2465199326
O       -0.2193142083   -5.5208117401    0.8697608648
S       -1.3410023383   -4.8242118118    0.2222971322
Br      -1.5835771206   -4.9671633964    4.3245665887
H       -2.5653918480    0.3099665706    2.2470415357
H       -0.2942829120    0.0062980367    1.2679083805
H       -4.1675403513   -1.6109450802    2.2984318039
H        0.3800608266   -2.2098676959    0.3344194101
H       -2.9872954983   -8.5980713044    1.4103984322
H       -1.8943204248   -8.0869659631    3.3419744123
H       -3.0831815997   -7.0263570682   -0.3180051285
H       -4.5369626302   -6.5265552965    0.5319708733
H       -3.2402047315   -6.8315245678    4.8498669198
H       -3.8984173414   -5.8112596112    3.5705613618
27   

C       -2.3235469506   -0.7263389629    1.8624235123
C       -1.0395067646   -0.8697633251    1.3061273886
C       -3.2213299178   -1.8043894946    1.8480037140
C       -0.6488634557   -2.0892358429    0.7321140426
C       -2.8191831999   -3.0153353470    1.2752532278
C       -1.5576232129   -3.1490061194    0.7261446926
C       -3.5869434138   -4.2599808232    1.1948679141
C       -3.2988511479   -7.4975833474    1.7644863918
C       -2.5669806135   -7.2211404201    2.8736703033
C       -3.4332301542   -6.6682588729    0.5019962997
C       -2.9247399161   -6.2130769203    3.9160057398
N       -2.8942319831   -5.3371045174    0.6866859715
O       -4.7473488462   -4.3510032122    1.5724259011
O       -1.3393278697   -4.8560751212   -1.3823215006
O       -0.2457666816   -5.5493600715    0.7188539128
S       -1.3619022324   -4.8287713555    0.0883913869
Br      -1.4409259841   -4.9288557541    4.1847721136
H       -2.6201922533    0.2163231471    2.3091334638
H       -0.3458464004   -0.0367863059    1.3234631727
H       -4.2121853333   -1.7134548840    2.2823152865
H        0.3421333748   -2.2107410554    0.3049514308
H       -3.3510878460   -8.5560960751    1.5341064641
H       -2.0289540605   -8.0659285403    3.2907973621
H       -2.9255578486   -7.1713931465   -0.3288861739
H       -4.4924304582   -6.5946960322    0.2303000904
H       -3.1160449729   -6.7263872097    4.8632060388
H       -3.8400082763   -5.6826924860    3.6362579416
27   

C       -2.1639463051   -0.5936543657    2.1245686629
C       -0.8589294122   -0.7055454738    1.6115747182
C       -3.0413982896   -1.6868212604    2.0620662771
C       -0.4261493235   -1.9091604407    1.0349279351
C       -2.5985059200   -2.8813102516    1.4847678262
C       -1.3147440193   -2.9844281207    0.9820692010
C       -3.3442852688   -4.1353131359    1.3500763236
C       -3.1001779352   -7.1964923238    2.0838930992
C       -2.3578907102   -6.8922710436    3.1893321627
C       -3.0793036541   -6.5504790748    0.7129626751
C       -2.7244262811   -5.9153196324    4.2602966305
N       -2.6348528439   -5.1752907500    0.7899029030
O       -4.5053601671   -4.2602806052    1.7159651467
O       -0.9150429767   -4.6463289421   -1.1352171939
O       -0.0008396091   -5.3823871451    1.0356708423
S       -1.0617753499   -4.6494685708    0.3285388245
Br      -1.2831327640   -4.5782173944    4.4946307265
H       -2.4930190393    0.3368148585    2.5739958297
H       -0.1817011666    0.1393539965    1.6644870751
H       -4.0488202924   -1.6194402468    2.4609472887
H        0.5810820227   -2.0067365986    0.6408320185
H       -3.2920395654   -8.2587384977    1.9793288935
H       -1.8315209561   -7.7407038507    3.6139334151
H       -2.4243131982   -7.1234124724    0.0466831805
H       -4.0858327575   -6.5790781482    0.2806539933
H       -2.8678697611   -6.4466673733    5.2060712354
H       -3.6650632005   -5.4148494793    4.0088427788
