16   
Generated by ForceBalance from scan.xyz: Frame 1 of 7
C        1.8934066568   -1.0320438117   -0.1507051328
C        2.9601867846   -1.5562596821    0.5928525932
C        0.7671419913   -0.5436141075    0.5276651307
C        2.9021343214   -1.5978069400    1.9871054511
C        0.7093260438   -0.5719036770    1.9217711632
C        1.7799091020   -1.0941927081    2.6786689333
C        1.7061911528   -1.1638379524    4.1322522910
N        2.7102890583   -1.5589358519    4.9571107286
N        0.8413586157   -0.3843306874    4.8905440351
N        2.0039331686   -1.7392393254    6.1077743592
N        1.2129324861   -0.6665809302    6.1988314120
H        1.9369368945   -1.0079002116   -1.2378956174
H        3.8398053948   -1.9415374746    0.0789796990
H       -0.0688124043   -0.1336933358   -0.0374028019
H        3.7170163385   -2.0160057915    2.5712001121
H       -0.1541545836   -0.1843042686    2.4548179023
16   
Generated by ForceBalance from scan.xyz: Frame 2 of 7
C        1.8917205613   -1.0338867500   -0.1483341764
C        2.9549713854   -1.5654722091    0.5948206078
C        0.7712764406   -0.5347872711    0.5307348971
C        2.8999652196   -1.6019124275    1.9894685175
C        0.7154282960   -0.5619978064    1.9254116787
C        1.7815825819   -1.0923188924    2.6817836956
C        1.7131746593   -1.1452586008    4.1396227794
N        2.7090905041   -1.5971876018    4.9408262854
N        0.8007478688   -0.4544359188    4.8833696491
N        2.1037320825   -1.6624256589    6.1460488003
N        1.1598606104   -0.7127860411    6.1685997840
H        1.9341559688   -1.0115415209   -1.2356331211
H        3.8309471253   -1.9584536599    0.0806200948
H       -0.0626526729   -0.1193299744   -0.0332682679
H        3.7148519358   -2.0215880003    2.5721823863
H       -0.1456752630   -0.1700037576    2.4588965816
16   
Generated by ForceBalance from scan.xyz: Frame 3 of 7
C        1.8876482268   -1.0350994173   -0.1451244797
C        2.9494876935   -1.5775678830    0.5917913023
C        0.7783833988   -0.5201163573    0.5398853729
C        2.9042942949   -1.6076046363    1.9870986142
C        0.7317500991   -0.5442449923    1.9352029825
C        1.7954385525   -1.0867852356    2.6855028045
C        1.7415494158   -1.1254568557    4.1466814661
N        2.7411210694   -1.5884417348    4.9307254395
N        0.7618999480   -0.5534262185    4.8842596931
N        2.2271220246   -1.5428869295    6.1735596965
N        1.1277277976   -0.7814832595    6.1598859004
H        1.9231815363   -1.0154772907   -1.2327432273
H        3.8171278849   -1.9824439997    0.0727572019
H       -0.0541423055   -0.0955758486   -0.0193888230
H        3.7202704966   -2.0311073442    2.5653243953
H       -0.1221031106   -0.1437086349    2.4737876648
16   
Generated by ForceBalance from scan.xyz: Frame 4 of 7
C        1.8857163180   -1.0363182548   -0.1441749034
C        2.9446970541   -1.5856969254    0.5917708496
C        0.7834228890   -0.5085415630    0.5423148298
C        2.9040385119   -1.6078668117    1.9874297573
C        0.7393058788   -0.5288664895    1.9378983667
C        1.7996208129   -1.0793655866    2.6869803514
C        1.7551408931   -1.1016011861    4.1492857578
N        2.7330247512   -1.6098138550    4.9297702010
N        0.7311035241   -0.6164563164    4.8835149188
N        2.2922622634   -1.4293065531    6.1858297077
N        1.0960835475   -0.8356294069    6.1577107078
H        1.9188446450   -1.0197900303   -1.2319435350
H        3.8076779479   -1.9994542674    0.0719476564
H       -0.0467634297   -0.0783877193   -0.0161731149
H        3.7202985694   -2.0316155870    2.5650574731
H       -0.1109159649   -0.1221075451    2.4774812355
16   
Generated by ForceBalance from scan.xyz: Frame 5 of 7
C        1.8859002282   -1.0385431901   -0.1452219806
C        2.9412671510   -1.5940048244    0.5913125559
C        0.7894227825   -0.4978316237    0.5405520988
C        2.9042000379   -1.6077173986    1.9871159553
C        0.7467859756   -0.5139418619    1.9361137543
C        1.8030010210   -1.0714849293    2.6859726555
C        1.7659470579   -1.0762725418    4.1481753645
N        2.7192718696   -1.6322160870    4.9294069844
N        0.7009557866   -0.6757810057    4.8805434206
N        2.3427257939   -1.3103478704    6.1806156103
N        1.0727107996   -0.8919233831    6.1565240495
H        1.9180119268   -1.0258283209   -1.2330503352
H        3.8001409698   -2.0165078905    0.0717473681
H       -0.0378601378   -0.0627580056   -0.0184069933
H        3.7202046246   -2.0311585103    2.5653472875
H       -0.1007817438   -0.1007646884    2.4750782851
16   
Generated by ForceBalance from scan.xyz: Frame 6 of 7
C        1.8874719897   -1.0423730239   -0.1485829954
C        2.9348763069   -1.6058127530    0.5936062154
C        0.7970613149   -0.4829049746    0.5323225815
C        2.8970041514   -1.6078040460    1.9892993872
C        0.7513211071   -0.4897825982    1.9276166852
C        1.7991530205   -1.0569407005    2.6828694927
C        1.7648229589   -1.0413929035    4.1427876335
N        2.7066766791   -1.6019991278    4.9406899059
N        0.6456120111   -0.7662264410    4.8739335924
N        2.3642039030   -1.1388251579    6.1619433247
N        1.0371722988   -0.9593642824    6.1611379014
H        1.9215571058   -1.0368097703   -1.2363911248
H        3.7891855136   -2.0423497096    0.0780853899
H       -0.0237194224   -0.0410165886   -0.0308791449
H        3.7092009657   -2.0328866172    2.5718495287
H       -0.0936913435   -0.0654404515    2.4620822484
16   
Generated by ForceBalance from scan.xyz: Frame 7 of 7
C        1.8870733501   -1.0447092028   -0.1510794937
C        2.9307233522   -1.6154252162    0.5910645518
C        0.8016755055   -0.4741388931    0.5297891572
C        2.8950965213   -1.6118966269    1.9866846390
C        0.7556276025   -0.4787736633    1.9246124097
C        1.7997150699   -1.0543292067    2.6798906390
C        1.7755979552   -1.0242826002    4.1364978463
N        2.6765408057   -1.6267319718    4.9550732437
N        0.6140698339   -0.8411923007    4.8767008653
N        2.3661171742   -1.0111513058    6.1298794266
N        1.0316426638   -1.0309721066    6.1877946001
H        1.9203808829   -1.0411053963   -1.2388931107
H        3.7810792576   -2.0595240486    0.0754055211
H       -0.0158879044   -0.0272453552   -0.0341545653
H        3.7060800068   -2.0379364634    2.5705383287
H       -0.0873023726   -0.0498658833    2.4589136159
