30   

C       -1.4854496449    0.9634569898    0.9076648531
C       -1.2341565792   -0.2557729867    1.5397196467
C       -0.5037058090    1.5386456592    0.0991574334
C        5.5528355519    1.2263096470   -1.2597804423
C       -0.0016993567   -0.8969106170    1.3688503563
C        0.7285132769    0.8985446043   -0.0723264034
C        5.1995652430    0.0113285175   -1.8384494814
C        4.8896724483    1.6546003542   -0.1147635893
C        1.0067420072   -0.3261700446    0.5726806518
C        3.4642495892   -0.3164043582   -0.1651246874
C        4.1827639583   -0.7788849584   -1.2957703371
C        3.8575028380    0.8967286906    0.4419743747
C        2.2913810884   -1.0575555883    0.3842140039
C        3.8259362988   -3.1611583465   -1.1471087133
C        3.5598032749   -3.1145706508    0.3600483623
N        2.3393170507   -2.3409428575    0.6754394187
N        3.9382353748   -2.0142883329   -1.8967850710
O        3.9824478539   -4.2220750866   -1.7310548470
F        3.2554270029    1.3460255775    1.5678909834
H       -2.4412433672    1.4580467221    1.0395461362
H       -1.9960911380   -0.7101709136    2.1628123047
H       -0.6985470353    2.4799548439   -0.4020480697
H        6.3487013225    1.8259583435   -1.6892912531
H        0.1592921052   -1.8455300332    1.8701540630
H        1.4601590400    1.3604467427   -0.7250841835
H        5.7387435033   -0.3302955999   -2.7145527528
H        5.1701040377    2.5883986467    0.3580413591
H        3.4378080051   -4.1412080319    0.7163534057
H        4.4288073027   -2.6890523799    0.8697742343
H        4.2578054380   -2.1997576537   -2.8387605350
30   

C       -1.4479567237    1.0163145911    0.9392904664
C       -1.1304370105   -0.1085336961    1.7044524219
C       -0.5603878264    1.4587881449   -0.0441766813
C        5.5529696607    1.2402756309   -1.1688075182
C        0.0729570879   -0.7897681393    1.4875012855
C        0.6425579084    0.7778032629   -0.2605654721
C        5.2415843465    0.0296100336   -1.7791362388
C        4.8295066570    1.6471573928   -0.0532961845
C        0.9777853201   -0.3570938044    0.5053286860
C        3.4370081711   -0.3438618499   -0.1901524682
C        4.2097049659   -0.7797012134   -1.2961179416
C        3.7816769380    0.8705277156    0.4450478340
C        2.2481215831   -1.1034158293    0.2910800637
C        3.8355684762   -3.1682462472   -1.2352281409
C        3.4986721542   -3.1685023608    0.2576073265
N        2.2729852321   -2.3937339078    0.5478947255
N        3.9980395078   -1.9997424799   -1.9402434942
O        4.0098049842   -4.2111106657   -1.8459847250
F        3.1218680771    1.3034411619    1.5447165525
H       -2.3811001088    1.5423250941    1.1068893120
H       -1.8174070441   -0.4568560640    2.4673166828
H       -0.8048847039    2.3290111271   -0.6426238346
H        6.3606993793    1.8548959719   -1.5525381582
H        0.2991933369   -1.6620182225    2.0918488978
H        1.3134055330    1.1322467453   -1.0353744784
H        5.8234836238   -0.2919054241   -2.6352813234
H        5.0738280843    2.5793752475    0.4421043220
H        3.3520323478   -4.2052822436    0.5729377985
H        4.3474182518   -2.7696569166    0.8202499166
H        4.3615302598   -2.1589749110   -2.8710542977
30   

C       -1.4080196798    1.0523478199    0.9474831171
C       -0.9993840030    0.0430000254    1.8235620189
C       -0.6373294600    1.3465880073   -0.1803385580
C        5.5647430656    1.2492399533   -1.0697715648
C        0.1766908086   -0.6726767159    1.5705439685
C        0.5382038230    0.6303893391   -0.4314264041
C        5.2886594730    0.0489619119   -1.7159582799
C        4.7894243792    1.6307209803    0.0191627373
C        0.9550072189   -0.3946449240    0.4381513116
C        3.4220056168   -0.3697718904   -0.2112912901
C        4.2425909810   -0.7763595521   -1.2943039561
C        3.7269024645    0.8380620370    0.4574802437
C        2.2192823203   -1.1462883211    0.2003763477
C        3.8577868790   -3.1673721360   -1.3252334883
C        3.4581687302   -3.2159916910    0.1506814105
N        2.2274610332   -2.4423651331    0.4212997771
N        4.0611383155   -1.9776570280   -1.9819780963
O        4.0499599778   -4.1901885305   -1.9638170329
F        3.0181546743    1.2502441473    1.5343561904
H       -2.3195858214    1.6058049346    1.1430524659
H       -1.5931741687   -0.1870675917    2.7008615621
H       -0.9498529266    2.1302199976   -0.8611098868
H        6.3834912945    1.8767096545   -1.4064251504
H        0.4846194201   -1.4526878356    2.2589334275
H        1.1292070539    0.8694830839   -1.3088874758
H        5.9080325968   -0.2505283484   -2.5535840330
H        5.0035650739    2.5560939359    0.5406421731
H        3.2922280643   -4.2619417055    0.4233145909
H        4.2859739356   -2.8440971803    0.7609332618
H        4.4643678946   -2.1090523784   -2.9007117661
30   

C       -1.3746515230    1.0758045218    0.9324058460
C       -0.8515928123    0.2233016718    1.9089081826
C       -0.7361989043    1.1874669053   -0.3057867055
C        5.5859744797    1.2530609595   -0.9538267498
C        0.3055413916   -0.5188820414    1.6451010390
C        0.4204531940    0.4442042420   -0.5661711394
C        5.3296191263    0.0716230696   -1.6408519626
C        4.7787830785    1.6039731796    0.1217445217
C        0.9461565219   -0.4278208822    0.4029578978
C        3.4219240389   -0.3918800853   -0.2007514707
C        4.2726855783   -0.7654885337   -1.2729908592
C        3.7050633099    0.7992553264    0.5078700741
C        2.2093964419   -1.1829946519    0.1494472314
C        3.8785601999   -3.1541959986   -1.4019695764
C        3.4354037868   -3.2565767894    0.0583519601
N        2.2028350826   -2.4848504765    0.3249490613
N        4.1090554528   -1.9421831055   -2.0066539737
O        4.0822828905   -4.1531108671   -2.0738960433
F        2.9680320136    1.1848787549    1.5751663860
H       -2.2711414745    1.6505602945    1.1360416553
H       -1.3408634009    0.1370211254    2.8723941866
H       -1.1355493929    1.8513912615   -1.0640358756
H        6.4129769913    1.8902802458   -1.2494474092
H        0.7086349051   -1.1750341646    2.4091235836
H        0.9148666799    0.5426023544   -1.5265200865
H        5.9721423782   -0.2029848381   -2.4695046773
H        4.9760173379    2.5153389126    0.6736340728
H        3.2548049664   -4.3110159377    0.2851801212
H        4.2477477757   -2.9151176518    0.7059853419
H        4.5385342188   -2.0421882046   -2.9174256332
30   

C       -1.3916776480    1.0869786459    0.8892939689
C       -0.7309605429    0.4670977835    1.9534269576
C       -0.8886675895    0.9585193492   -0.4079758769
C        5.6274698315    1.2245431051   -0.8277638000
C        0.4282221942   -0.2815938622    1.7183203077
C        0.2705476048    0.2090763706   -0.6375329586
C        5.3444617498    0.0817798034   -1.5668219648
C        4.8311091818    1.5415941344    0.2657061732
C        0.9367403781   -0.4283160278    0.4227237435
C        3.4308166150   -0.4093865093   -0.1413538925
C        4.2715069402   -0.7493705496   -1.2335838634
C        3.7417598541    0.7426650001    0.6189769519
C        2.2006859716   -1.1926485338    0.1667090963
C        3.8312838491   -3.1212431999   -1.4766308352
C        3.3800951192   -3.2848888260   -0.0245681317
N        2.1621536714   -2.5007879381    0.2705528120
N        4.0823493115   -1.8858077266   -2.0227715818
O        4.0180397380   -4.0901704361   -2.1957425647
F        3.0205465000    1.0968930350    1.7064061156
H       -2.2901848835    1.6662964364    1.0698187445
H       -1.1153221485    0.5659182903    2.9622006583
H       -1.3955292041    1.4397111965   -1.2367089305
H        6.4661274184    1.8579846801   -1.0975005397
H        0.9371390737   -0.7580791623    2.5491850393
H        0.6582332504    0.1178484272   -1.6463834129
H        5.9781050125   -0.1669354386   -2.4103403865
H        5.0489249503    2.4225999183    0.8576808629
H        3.1761411582   -4.3449151811    0.1505230321
H        4.1958545564   -2.9913651993    0.6419641652
H        4.5098129761   -1.9500423383   -2.9377094717
30   

C       -1.2749171798    0.7195764202    0.6763968991
C       -0.4807090590    0.4407227351    1.7910274719
C       -0.8366927997    0.3437833019   -0.5949560910
C        5.8629401692    1.3333159333   -0.7000652944
C        0.7486887373   -0.2099599020    1.6321441983
C        0.3933071887   -0.3055743195   -0.7464269227
C        5.5994203224    0.2441960936   -1.5210353887
C        5.0835581145    1.5337791642    0.4315783571
C        1.2052906993   -0.5911517019    0.3652192855
C        3.7296417080   -0.4215961943   -0.1028574088
C        4.5609081802   -0.6454844015   -1.2335428038
C        4.0275495285    0.6743620277    0.7422024915
C        2.5272318271   -1.2719643713    0.1447278193
C        4.2256311289   -3.0085348886   -1.6420397786
C        3.7892461079   -3.2941870796   -0.2044858019
N        2.5376968596   -2.5846372574    0.1340295253
N        4.3994504935   -1.7260517273   -2.1034189279
O        4.4562693575   -3.9142214186   -2.4277865090
F        3.3335548429    0.9184132095    1.8739182619
H       -2.2284630812    1.2210983831    0.7978634309
H       -0.8185073718    0.7235452719    2.7815121394
H       -1.4493083674    0.5528378936   -1.4646073995
H        6.6746662611    2.0138583455   -0.9352457723
H        1.3423306743   -0.4372393316    2.5104426875
H        0.7251298037   -0.5954740224   -1.7376562506
H        6.2221665467    0.0834202943   -2.3935178646
H        5.2893009413    2.3702918969    1.0888250880
H        3.6313795902   -4.3715891575   -0.1036274729
H        4.5920046235   -3.0105020923    0.4818089648
H        4.8163816235   -1.7047164737   -3.0251827724
30   

C       -1.3051611420    0.6953302035    0.5625808579
C       -0.4303057444    0.7247489133    1.6494539097
C       -0.9341119395    0.0198659579   -0.5996823184
C        5.9230809996    1.3024172438   -0.5798963712
C        0.8148485308    0.0883425282    1.5708807315
C        0.3112416320   -0.6123689535   -0.6717403915
C        5.5590143808    0.3103056307   -1.4807243718
C        5.2456552040    1.4014519082    0.6281012098
C        1.2153879045   -0.5823349093    0.4074991836
C        3.7654880521   -0.4308156642    0.0001048458
C        4.5119771350   -0.5713174200   -1.2010169185
C        4.1846278845    0.5459017775    0.9340781988
C        2.5418808964   -1.2651962186    0.2249849833
C        4.1328261564   -2.8918801865   -1.7479466496
C        3.7603263655   -3.2714686444   -0.3124295894
N        2.5287145565   -2.5739395221    0.1134392920
N        4.2694074881   -1.5797055909   -2.1362034723
O        4.3268437870   -3.7442782413   -2.6004003032
F        3.6198624835    0.6665327216    2.1514673111
H       -2.2706351659    1.1848094422    0.6244528913
H       -0.7210832463    1.2309860032    2.5629284461
H       -1.6100844945   -0.0179146682   -1.4464255414
H        6.7400599189    1.9787285554   -0.8090456528
H        1.4303381569    0.0886771258    2.4587707393
H        0.5872100922   -1.1362423153   -1.5809639393
H        6.1125152443    0.2151431525   -2.4077987270
H        5.5406998178    2.1511300078    1.3526513937
H        3.5958451531   -4.3519328847   -0.2748280903
H        4.5930166344   -3.0368092099    0.3566225446
H        4.6342083867   -1.4980924928   -3.0764901338
30   

C       -1.3625089138    0.6233422595    0.5240597733
C       -0.3881175822    0.9395206340    1.4703368090
C       -1.0663488197   -0.2914055053   -0.4843306238
C        5.9468422627    1.3164323166   -0.4267224413
C        0.8805870571    0.3491092431    1.4055235977
C        0.2015117742   -0.8777169368   -0.5442845005
C        5.5133829146    0.4476388459   -1.4217473680
C        5.3468353563    1.2665825544    0.8267374394
C        1.2103537855   -0.5631871582    0.3913634498
C        3.7753018618   -0.4187882330    0.0482782042
C        4.4619223270   -0.4423222120   -1.1911358499
C        4.2842844620    0.3958271326    1.0824581693
C        2.5378759208   -1.2458880739    0.2399356253
C        4.0633445781   -2.7106972438   -1.8922528895
C        3.7487706546   -3.1995614261   -0.4722570941
N        2.5262810957   -2.5458536032    0.0429014003
N        4.1712918445   -1.3707202935   -2.1925704318
O        4.2301326738   -3.4983961234   -2.8102367863
F        3.8123721443    0.3195773359    2.3448001405
H       -2.3445889153    1.0798812254    0.5757396242
H       -0.6164607139    1.6415533459    2.2642726449
H       -1.8176880736   -0.5514618142   -1.2213779431
H        6.7668219539    2.0011557313   -0.6168993907
H        1.5747777217    0.6201617163    2.1833148255
H        0.4101447174   -1.5907013533   -1.3353613468
H        6.0202599187    0.4488321098   -2.3798412087
H        5.7099853612    1.9023591462    1.6253859275
H        3.5939149657   -4.2815464371   -0.5068899423
H        4.6031091619   -3.0056806343    0.1825786613
H        4.4988627839   -1.2184201720   -3.1377161938
30   

C       -1.3953840155    0.5925440630    0.5638236565
C       -0.3302352617    1.1088880429    1.2999667160
C       -1.1811346457   -0.4974079864   -0.2763565958
C        5.9682366970    1.3169305123   -0.2931120921
C        0.9455428988    0.5403426082    1.1948234301
C        0.0938543981   -1.0624113673   -0.3772739005
C        5.5344093978    0.5144055441   -1.3435632913
C        5.3546231525    1.2007045083    0.9505767922
C        1.1951930337   -0.5529891977    0.3490428314
C        3.7675022691   -0.4052246380    0.0524995867
C        4.4685576858   -0.3724481552   -1.1760301928
C        4.2765556441    0.3322965140    1.1412332429
C        2.5225424563   -1.2307163947    0.1990942365
C        4.0686036383   -2.6046112370   -1.9747992579
C        3.7524362077   -3.1510448670   -0.5747126157
N        2.5242452571   -2.5254250367   -0.0369212516
N        4.1827791659   -1.2533611746   -2.2201465615
O        4.2368900323   -3.3552800530   -2.9230887519
F        3.7789201578    0.1807464718    2.3896761453
H       -2.3825247780    1.0335999879    0.6451176437
H       -0.4908707827    1.9559769465    1.9572008210
H       -2.0019190612   -0.9105716823   -0.8516899755
H        6.8004193001    1.9989146332   -0.4337457507
H        1.7216074503    0.9975603737    1.7868067981
H        0.2275002573   -1.9128751345   -1.0378662447
H        6.0538988866    0.5616286154   -2.2937170960
H        5.7191490057    1.7804812195    1.7901745246
H        3.6042134572   -4.2317049637   -0.6524561102
H        4.6038623251   -2.9790512225    0.0899756025
H        4.5168879496   -1.0619796505   -3.1558355559
30   

C       -1.4013460036    0.6020698522    0.6177994219
C       -0.2712514617    1.2484955767    1.1151513072
C       -1.2580971192   -0.6192115982   -0.0359370512
C        5.9829393394    1.3016238662   -0.1745743554
C        0.9979020472    0.6771238559    0.9595581623
C        0.0105147134   -1.1873410851   -0.1882292541
C        5.5796049329    0.5336739960   -1.2628597635
C        5.3173629970    1.1646530293    1.0401716184
C        1.1767213221   -0.5509647835    0.3009932529
C        3.7504551548   -0.3999427001    0.0392127777
C        4.4971496663   -0.3432091067   -1.1608125291
C        4.2208436355    0.3077771955    1.1644245980
C        2.5016625607   -1.2251632483    0.1332735185
C        4.1046176183   -2.5465404374   -2.0356938742
C        3.7521176878   -3.1282378643   -0.6588440012
N        2.5127350770   -2.5148090799   -0.1321465483
N        4.2388702616   -1.1905114590   -2.2388224945
O        4.2928099580   -3.2722649628   -2.9995574684
F        3.6488381961    0.1502397954    2.3812430650
H       -2.3835153929    1.0454657486    0.7375041594
H       -0.3756424547    2.2009419651    1.6223543788
H       -2.1295588532   -1.1324432206   -0.4265157853
H        6.8291172037    1.9749400469   -0.2643956745
H        1.8282619051    1.2454603811    1.3499595543
H        0.0807261563   -2.1413338693   -0.7002585715
H        6.1360170305    0.5992846381   -2.1907745201
H        5.6523780322    1.7211212520    1.9074275113
H        3.6040526695   -4.2060787040   -0.7690384259
H        4.5876413053   -2.9766135857    0.0304970917
H        4.6018507555   -0.9749334942   -3.1583576368
30   

C       -1.3883054413    0.6303816305    0.6684342340
C       -0.2218460390    1.3520084760    0.9164629856
C       -1.2969222014   -0.6830132147    0.2135499972
C        5.9871164966    1.2652444546   -0.0644505328
C        1.0321794345    0.7632588111    0.7118254896
C       -0.0433015716   -1.2687769640    0.0110985092
C        5.6288852943    0.5164344862   -1.1815424186
C        5.2559186547    1.1277191504    1.1116156248
C        1.1572832009   -0.5583686788    0.2527167738
C        3.7284524726   -0.4144806634    0.0166424526
C        4.5319507544   -0.3479800857   -1.1462783500
C        4.1434907573    0.2849391373    1.1693195324
C        2.4754256581   -1.2336682763    0.0526186938
C        4.1432381174   -2.5223290758   -2.0948393185
C        3.7323961641   -3.1320833162   -0.7477992859
N        2.4839596554   -2.5162821240   -0.2460086638
N        4.3106682311   -1.1650822718   -2.2551505646
O        4.3575592285   -3.2261346925   -3.0694412004
F        3.4859945959    0.1475787150    2.3448118937
H       -2.3589214615    1.0871244012    0.8261505570
H       -0.2865279010    2.3762978925    1.2656485198
H       -2.1972695037   -1.2541271120    0.0171047026
H        6.8452122410    1.9283059249   -0.1030100242
H        1.8928856144    1.3894690771    0.8988862021
H       -0.0149179560   -2.2950594824   -0.3395322544
H        6.2308090578    0.5885058113   -2.0801229613
H        5.5480804220    1.6759656048    1.9994095738
H        3.5745252543   -4.2046226055   -0.8910529559
H        4.5450275543   -3.0100410362   -0.0260194188
H        4.7143404127   -0.9317746647   -3.1531535112
30   

C       -1.3666754667    0.6558655285    0.7264520635
C       -0.1966050996    1.4144007007    0.7282205199
C       -1.2970179208   -0.7120772445    0.4692624370
C        5.9774100705    1.2272845953    0.0311075286
C        1.0397534285    0.8075293991    0.4757963760
C       -0.0606965162   -1.3159278922    0.2182129210
C        5.6694265344    0.4891366078   -1.1077300685
C        5.1817346706    1.0958375965    1.1648332526
C        1.1405478513   -0.5688355882    0.2159807932
C        3.7055330177   -0.4373717280   -0.0122069439
C        4.5638132276   -0.3647566702   -1.1360101536
C        4.0597434463    0.2642999679    1.1603424734
C        2.4475223083   -1.2448981690   -0.0352086912
C        4.1704814595   -2.5062135417   -2.1634553815
C        3.6947346836   -3.1441375232   -0.8530102308
N        2.4432282874   -2.5174969360   -0.3735288043
N        4.3811215300   -1.1509839660   -2.2739576145
O        4.4066297030   -3.1859349361   -3.1500155661
F        3.3293372425    0.1457699251    2.2938345648
H       -2.3240178977    1.1262213425    0.9209568556
H       -0.2455320447    2.4800116667    0.9214090960
H       -2.2007815510   -1.3108618329    0.4642285878
H        6.8428555263    1.8817964711    0.0410448296
H        1.9088944279    1.4523310869    0.4651589795
H       -0.0443421124   -2.3835744339    0.0261718817
H        6.3155494321    0.5642408705   -1.9748279123
H        5.4284341585    1.6419975685    2.0676124140
H        3.5193111594   -4.2080823820   -1.0347825865
H        4.4830554364   -3.0626967503   -0.0992970444
H        4.8270606526   -0.9016412328   -3.1473337777
30   

C       -1.3429743394    0.6747019373    0.7788439370
C       -0.2022164679    1.4436071318    0.5455430825
C       -1.2602965207   -0.7161632626    0.7161045015
C        5.9605389005    1.1976762156    0.1148703875
C        1.0184729035    0.8235883441    0.2530448900
C       -0.0392795160   -1.3331217346    0.4242620069
C        5.6995578604    0.4684049486   -1.0410559510
C        5.1088830174    1.0719600926    1.2073481986
C        1.1291328790   -0.5746078033    0.1911146548
C        3.6845206585   -0.4559019296   -0.0397823521
C        4.5897519580   -0.3764184608   -1.1268093714
C        3.9819066676    0.2497284730    1.1470054902
C        2.4217998663   -1.2480046602   -0.1205837588
C        4.1846865673   -2.4796944410   -2.2377649126
C        3.6486950523   -3.1475974866   -0.9678256185
N        2.3993834958   -2.5080183990   -0.5008542129
N        4.4420521757   -1.1299933154   -2.2919319694
O        4.4346838141   -3.1314684569   -3.2396222963
F        3.1942199392    0.1433539485    2.2425923188
H       -2.2887789132    1.1545951448    1.0040253310
H       -0.2627908139    2.5252037668    0.5864823093
H       -2.1421461625   -1.3215649106    0.8925830403
H        6.8297524347    1.8450098669    0.1687057875
H        1.8735546861    1.4601679439    0.0585674249
H       -0.0039650087   -2.4166992891    0.3822249085
H        6.3835518777    0.5470978960   -1.8782782252
H        5.3141757911    1.6162898624    2.1215320604
H        3.4527898719   -4.1996631424   -1.1927587822
H        4.4146463777   -3.1136046473   -0.1879218528
H        4.9254156780   -0.8643403646   -3.1402509160
30   

C       -1.3258188708    0.6897532604    0.8275279665
C       -0.2425821220    1.4405038381    0.3661334091
C       -1.1988097053   -0.6934571780    0.9663569667
C        5.9463826839    1.1518969271    0.2131721878
C        0.9659650511    0.8097103227    0.0480803237
C        0.0102745019   -1.3213091544    0.6483071866
C        5.7239192884    0.4295149315   -0.9547458767
C        5.0471695055    1.0369085981    1.2675363988
C        1.1181926578   -0.5779453543    0.1932471059
C        3.6627337429   -0.4808333631   -0.0367872791
C        4.6087213246   -0.4018728850   -1.0896223430
C        3.9141333030    0.2282138648    1.1594328598
C        2.3944551000   -1.2527502402   -0.1713677642
C        4.1865382785   -2.4686312459   -2.2722607477
C        3.5941555641   -3.1580666037   -1.0407633857
N        2.3504091263   -2.5011038978   -0.5840935043
N        4.4905331530   -1.1281930946   -2.2756283600
O        4.4459792233   -3.0965846080   -3.2868100325
F        3.0802260102    0.1367986368    2.2216381545
H       -2.2627949462    1.1773229075    1.0722367482
H       -0.3394756771    2.5139142835    0.2496304294
H       -2.0374977032   -1.2837456954    1.3176778852
H        6.8199858150    1.7889925911    0.3046700728
H        1.7851464249    1.4159629808   -0.3224204755
H        0.0888487902   -2.3980525531    0.7563074989
H        6.4404174854    0.5064743102   -1.7644829153
H        5.2187321323    1.5799378018    2.1894053007
H        3.3764599430   -4.1967903619   -1.3044030342
H        4.3385516526   -3.1703025346   -0.2396774605
H        5.0080326864   -0.8527292223   -3.1003819377
30   

C       -1.3046329660    0.6989603008    0.8457332501
C       -0.3092787816    1.4099367642    0.1702007858
C       -1.0972394483   -0.6433394018    1.1725697617
C        5.9614732880    1.1062704503    0.2981797699
C        0.8932033564    0.7807096556   -0.1727417035
C        0.1057531508   -1.2697546970    0.8289734429
C        5.7649611739    0.4110740691   -0.8903529954
C        5.0254037357    0.9884173751    1.3191244981
C        1.1242359914   -0.5607883036    0.1655193635
C        3.6625071069   -0.4870004501   -0.0558214265
C        4.6411742453   -0.3982352056   -1.0784190196
C        3.8834516156    0.2011600085    1.1593805888
C        2.3878584588   -1.2329274708   -0.2481526963
C        4.2005238089   -2.4127237546   -2.3492409580
C        3.5593127418   -3.1334652804   -1.1618023090
N        2.3227951139   -2.4643635681   -0.7038323762
N        4.5443204545   -1.0836140047   -2.2907568031
O        4.4674125031   -3.0066835780   -3.3821258353
F        3.0153280581    0.1091609353    2.1937211179
H       -2.2372973268    1.1847197559    1.1097214334
H       -0.4707025928    2.4490640710   -0.0930931932
H       -1.8696282149   -1.2029321658    1.6878249373
H        6.8417093816    1.7268126535    0.4305445456
H        1.6502888422    1.3434265693   -0.7081068021
H        0.2526271907   -2.3160370201    1.0754767636
H        6.5073315257    0.4943559236   -1.6757739579
H        5.1741372649    1.5130832349    2.2554633634
H        3.3211012382   -4.1544525007   -1.4728007055
H        4.2840105879   -3.1986718679   -0.3453996853
H        5.0913879016   -0.7917866590   -3.0904439318
30   

C       -1.3150898317    0.7057049052    0.8560805852
C       -0.4309264125    1.3345404142   -0.0254430399
C       -0.9981885765   -0.5512241531    1.3786948039
C        5.9757530771    1.0336769970    0.4057142943
C        0.7711076543    0.7097294566   -0.3780236384
C        0.2041418042   -1.1732930866    1.0246651838
C        5.7914925565    0.3727485448   -0.8038404949
C        5.0139894705    0.9117912749    1.4016350880
C        1.1110176950   -0.5398070123    0.1575497092
C        3.6531758908   -0.5034982204   -0.0379993061
C        4.6554690822   -0.4071121968   -1.0374665662
C        3.8597384967    0.1531814494    1.1975257293
C        2.3687059663   -1.2163693691   -0.2797109710
C        4.1913362430   -2.3670104463   -2.3868406539
C        3.5085567450   -3.1124899673   -1.2390892578
N        2.2813702419   -2.4288238090   -0.7781080287
N        4.5695795307   -1.0511121159   -2.2733180363
O        4.4619409229   -2.9298616799   -3.4360290273
F        2.9683922725    0.0574812910    2.2113549985
H       -2.2476219750    1.1875026098    1.1276757897
H       -0.6791135888    2.3045664262   -0.4409378221
H       -1.6858781743   -1.0485631078    2.0531668654
H        6.8652584163    1.6321444351    0.5730250289
H        1.4443047118    1.2003684047   -1.0726897442
H        0.4385340815   -2.1561966546    1.4191454548
H        6.5523257064    0.4611704247   -1.5707950208
H        5.1515771341    1.4115510032    2.3531569519
H        3.2499380087   -4.1147918190   -1.5918133376
H        4.2156960268   -3.2267628077   -0.4127725690
H        5.1405719397   -0.7461990395   -3.0511085754
30   

C       -1.3380819355    0.7475587019    0.8333242385
C       -0.5734162525    1.2320261600   -0.2323595436
C       -0.9009374608   -0.3694987241    1.5512488919
C        5.9911152174    0.9683623559    0.5318685693
C        0.6306379848    0.6048018914   -0.5737384607
C        0.3028271866   -0.9947171187    1.2075534634
C        5.8052675714    0.3605435128   -0.7046402088
C        5.0193895485    0.8227410669    1.5144656623
C        1.0910485077   -0.4983622295    0.1556522339
C        3.6456737061   -0.5101658929    0.0090855299
C        4.6580370998   -0.3892652428   -0.9783584726
C        3.8538602000    0.0933528459    1.2712674676
C        2.3503728990   -1.1873814446   -0.2767086218
C        4.1722137259   -2.2801344793   -2.4165336838
C        3.4607072811   -3.0606910126   -1.3106844677
N        2.2426274745   -2.3703710228   -0.8363036762
N        4.5718733984   -0.9774288625   -2.2418927887
O        4.4438302996   -2.8014243355   -3.4867233765
F        2.9551130589   -0.0262797681    2.2750695261
H       -2.2719677584    1.2312068974    1.0968675252
H       -0.9163325509    2.0903118728   -0.7988958170
H       -1.4968248416   -0.7565934965    2.3699248166
H        6.8889472537    1.5446272178    0.7297758876
H        1.2109308065    0.9777419190   -1.4107739945
H        0.6309904869   -1.8717469143    1.7547295938
H        6.5732258007    0.4678736548   -1.4620049744
H        5.1576408329    1.2816587955    2.4862325016
H        3.1853938469   -4.0408200634   -1.7100142652
H        4.1547974822   -3.2255442498   -0.4818723729
H        5.1561356754   -0.6493650451   -3.0001607753
30   

C       -1.3592838600    0.7318280150    0.7412165767
C       -0.7068330903    0.9998996706   -0.4659975503
C       -0.8052419715   -0.1813209337    1.6432702637
C        6.0146301845    0.8814941576    0.6285562104
C        0.5047877718    0.3655113329   -0.7641132626
C        0.4053320934   -0.8158825071    1.3427803630
C        5.8049791288    0.3500780437   -0.6381855490
C        5.0630962230    0.6724414086    1.6186492934
C        1.0873620597   -0.5235980986    0.1491803092
C        3.6572194063   -0.5665734835    0.0614889492
C        4.6532724510   -0.3838356261   -0.9346528571
C        3.8929819271   -0.0423778653    1.3542806663
C        2.3549684202   -1.2225114471   -0.2563019269
C        4.1617314174   -2.1933388374   -2.4691869640
C        3.4562562975   -3.0332229382   -1.4038328524
N        2.2406256891   -2.3635777274   -0.8955477053
N        4.5483756518   -0.8970926116   -2.2291686637
O        4.4305495097   -2.6553704483   -3.5669668760
F        3.0214638544   -0.2253686902    2.3700710741
H       -2.2983181484    1.2220971585    0.9722642671
H       -1.1425821873    1.6946753574   -1.1749746903
H       -1.3169175284   -0.4050072285    2.5724219951
H        6.9154446596    1.4468000517    0.8437504499
H        0.9968043671    0.5658102112   -1.7098795300
H        0.8150293434   -1.5431784052    2.0349200246
H        6.5579895057    0.5049071491   -1.4023098434
H        5.2211189389    1.0701166145    2.6141006501
H        3.1785341817   -3.9905470919   -1.8536064014
H        4.1523899796   -3.2406759032   -0.5863814720
H        5.1221317121   -0.5236834990   -2.9743605329
30   

C       -1.3743743773    0.7201761803    0.6212146000
C       -0.8269817688    0.7176001021   -0.6641960636
C       -0.7135103497    0.0563802919    1.6581146943
C        6.0545229906    0.7935954814    0.6739234062
C        0.3906604434    0.0718642845   -0.9058593123
C        0.5029540452   -0.5923684190    1.4155291265
C        5.7823689773    0.3795631238   -0.6233673485
C        5.1635824148    0.4708194170    1.6887207803
C        1.0926369648   -0.5527874913    0.1381022851
C        3.6785600564   -0.6269425460    0.0971031487
C        4.6244266336   -0.3417357353   -0.9250507295
C        3.9881746678   -0.2346692575    1.4209643213
C        2.3643464633   -1.2594825517   -0.2413071938
C        4.1225818751   -2.0491008290   -2.5602319986
C        3.4617458050   -2.9719545900   -1.5345141954
N        2.2481124393   -2.3499954410   -0.9647122743
N        4.4683867192   -0.7556922106   -2.2495937479
O        4.3757729029   -2.4333236507   -3.6912321223
F        3.1949680121   -0.5433517154    2.4662303086
H       -2.3176096955    1.2205392549    0.8096398342
H       -1.3480044637    1.2110334694   -1.4768034132
H       -1.1510051455    0.0305478316    2.6496698772
H        6.9594266672    1.3505793472    0.8936423748
H        0.7993196296    0.0621569566   -1.9109261988
H        0.9566986893   -1.1507900503    2.2236202907
H        6.4926845083    0.6136664678   -1.4079358714
H        5.3757253642    0.7686152513    2.7087011033
H        3.1883093145   -3.9033558418   -2.0380897103
H        4.1799662633   -3.2167811715   -0.7470060472
H        5.0059827330   -0.3170757297   -2.9861488070
30   

C       -1.3457799582    0.7960249208    0.5082822871
C       -0.9576197162    0.4088690656   -0.7749736603
C       -0.5347625379    0.4817738298    1.6001697825
C        6.0158710066    0.6980364918    0.7981090336
C        0.2400330362   -0.2886128289   -0.9646328797
C        0.6642560022   -0.2163799052    1.4124874546
C        5.6760261546    0.4816798861   -0.5326810210
C        5.2211508039    0.1509174287    1.7997065821
C        1.0719711900   -0.6146682061    0.1226275039
C        3.6612515128   -0.7072596182    0.1432063242
C        4.5313102386   -0.2423404569   -0.8736555074
C        4.0626629577   -0.5657535222    1.4884966809
C        2.3452140741   -1.3322541737   -0.2156694625
C        4.0592068724   -1.8165793246   -2.6328584153
C        3.4896708992   -2.8690340354   -1.6722101445
N        2.2593781102   -2.3676770574   -1.0221634520
N        4.3262704402   -0.5284181700   -2.2246201538
O        4.2973457418   -2.0874788968   -3.7994218008
F        3.3865047012   -1.1568020428    2.4964912418
H       -2.2742329875    1.3360167775    0.6565539651
H       -1.5839601405    0.6481059561   -1.6269077534
H       -0.8365081779    0.7767870279    2.5988116471
H        6.9096385537    1.2591366648    1.0505429239
H        0.5238715744   -0.5773506794   -1.9715474226
H        1.2383363354   -0.4437214761    2.2957671840
H        6.3271464297    0.8617149846   -1.3114480333
H        5.5031922895    0.2697108510    2.8390676790
H        3.2544783528   -3.7687525747   -2.2475899720
H        4.2452997322   -3.1369885521   -0.9282465056
H        4.8088416999    0.0044113820   -2.9366848725
30   

C       -1.3582637275    0.8061163036    0.4889510394
C       -1.1130411176    0.1681754334   -0.7270749160
C       -0.3953809268    0.7619084019    1.4977193640
C        6.0116309834    0.6151559590    0.9010925658
C        0.0869787650   -0.5221218164   -0.9290982367
C        0.8067838988    0.0733050894    1.2972191441
C        5.6853279560    0.4838865793   -0.4452279375
C        5.1986967482    0.0181833924    1.8602519349
C        1.0590044750   -0.6080423121    0.0866607032
C        3.6489236996   -0.7110058632    0.1371393470
C        4.5360644698   -0.2040319314   -0.8410708109
C        4.0347398805   -0.6617201583    1.4921734395
C        2.3335954269   -1.3137094197   -0.2598973565
C        4.0788836938   -1.6964601211   -2.6696955407
C        3.5100353708   -2.7916064547   -1.7552701921
N        2.2687958898   -2.3284542988   -1.0962623358
N        4.3453788852   -0.4267303553   -2.2054296373
O        4.3231338694   -1.9182641355   -3.8453711741
F        3.3257697221   -1.3032872790    2.4492230644
H       -2.2887005505    1.3401943799    0.6459914423
H       -1.8517304976    0.2089190061   -1.5195659904
H       -0.5766420852    1.2685194633    2.4389157555
H        6.9099261221    1.1473678676    1.1964307569
H        0.2499312911   -0.9957029508   -1.8917539585
H        1.5206116770    0.0984948693    2.1053096835
H        6.3515827589    0.8982365628   -1.1930965364
H        5.4705166490    0.0688490773    2.9078688304
H        3.2886322021   -3.6700761164   -2.3677356938
H        4.2616288060   -3.0826250224   -1.0158935754
H        4.8346399325    0.1363932302   -2.8890247990
30   

C       -1.3836888425    0.7697880442    0.5317955223
C       -1.2454929656   -0.0564411342   -0.5830949203
C       -0.3050225127    0.9429276420    1.3986906060
C        6.0134945511    0.5398609346    0.9952449028
C       -0.0368606442   -0.7195874896   -0.8227335962
C        0.9053281686    0.2819212954    1.1601751230
C        5.7267372874    0.4464563039   -0.3634648158
C        5.1503681437   -0.0470416205    1.9160712283
C        1.0542852004   -0.5929591113    0.0599327243
C        3.6412978568   -0.7031096428    0.1279889030
C        4.5717431699   -0.1993475020   -0.8108607701
C        3.9791767595   -0.6827706771    1.4966308382
C        2.3300522376   -1.2797451729   -0.3125517803
C        4.1329486994   -1.6317041804   -2.6897797229
C        3.5281955852   -2.7392131940   -1.8149843843
N        2.2782586370   -2.2775961674   -1.1711259410
N        4.4159192498   -0.3817326641   -2.1851771557
O        4.3999352603   -1.8282511330   -3.8650281682
F        3.1996962578   -1.2942474921    2.4193033709
H       -2.3206155499    1.2830882027    0.7170010591
H       -2.0748843579   -0.1831909284   -1.2696913320
H       -0.4016992671    1.5997383142    2.2557777912
H        6.9172611178    1.0383864822    1.3300829365
H        0.0303901543   -1.3401562321   -1.7101258780
H        1.7139513623    0.4878486394    1.8457438892
H        6.4280985931    0.8571435772   -1.0806465995
H        5.3855248426   -0.0197309843    2.9734259688
H        3.3098963454   -3.5997844257   -2.4533956590
H        4.2591535439   -3.0581065776   -1.0665095785
H        4.9336742425    0.1893219158   -2.8406271899
30   

C       -1.3959364342    0.7308933400    0.5957828749
C       -1.3379368525   -0.2479746156   -0.3956908190
C       -0.2357910400    1.0821017421    1.2850093146
C        6.0054971817    0.4600393569    1.0702670090
C       -0.1262386659   -0.8839998042   -0.6885068288
C        0.9769444893    0.4480016114    0.9929684319
C        5.7684875133    0.3927555008   -0.2994978544
C        5.0854194063   -0.1021573004    1.9499715960
C        1.0523946150   -0.5748946119    0.0188859514
C        3.6319643123   -0.6998571357    0.0949870440
C        4.6115399362   -0.2088962598   -0.8008861708
C        3.9111388753   -0.6928471243    1.4777068191
C        2.3251406760   -1.2411842249   -0.3933222778
C        4.1878535028   -1.5711521933   -2.7363981185
C        3.5281727064   -2.6843158947   -1.9122794106
N        2.2747767538   -2.2100987564   -1.2848717762
N        4.4983252218   -0.3492010135   -2.1841569714
O        4.4826537526   -1.7406889830   -3.9092064805
F        3.0601349703   -1.2593827703    2.3651799219
H       -2.3351178953    1.2235349125    0.8212589396
H       -2.2331121279   -0.5152919089   -0.9457389259
H       -0.2715526788    1.8564977590    2.0428674498
H        6.9114563861    0.9241375394    1.4461835608
H       -0.1286518874   -1.6295123127   -1.4765720494
H        1.8500128319    0.7906412314    1.5311086689
H        6.5092235612    0.7914666607   -0.9830851474
H        5.2753325781   -0.0871795561    3.0166626830
H        3.3037915463   -3.5189366119   -2.5822436118
H        4.2300725059   -3.0461127135   -1.1555830631
H        5.0534782957    0.2243292382   -2.8059790270
30   

C       -1.3921573648    0.6951801070    0.6659555302
C       -1.3800389733   -0.4103956206   -0.1848335733
C       -0.1886338791    1.1980902800    1.1601926905
C        5.9903134006    0.3835188051    1.1511297421
C       -0.1686602618   -1.0188420997   -0.5330618207
C        1.0232108253    0.5912566893    0.8125740953
C        5.8114165501    0.3296506248   -0.2278511558
C        5.0107867105   -0.1430158558    1.9869928499
C        1.0564389666   -0.5485410046   -0.0233314457
C        3.6261316705   -0.6973844874    0.0657491627
C        4.6576979525   -0.2288468916   -0.7841514196
C        3.8387605027   -0.6908229890    1.4612232691
C        2.3243245580   -1.1945799769   -0.4736934371
C        4.2491096305   -1.5203843142   -2.7753720999
C        3.5208105111   -2.6291597030   -2.0080181108
N        2.2680658993   -2.1301732486   -1.3995551341
N        4.5946624446   -0.3326048987   -2.1739696242
O        4.5751474624   -1.6660662243   -3.9430940534
F        2.9232362592   -1.2123933060    2.3109448977
H       -2.3312225561    1.1664038297    0.9336930300
H       -2.3112601978   -0.7984569326   -0.5817554301
H       -0.1914830169    2.0672494595    1.8081355387
H        6.8944342346    0.8142449456    1.5688755088
H       -0.2046645703   -1.8703425723   -1.2042860153
H        1.9330444744    1.0388723102    1.1922653514
H        6.5936630175    0.7086274236   -0.8754939726
H        5.1504506626   -0.1317696799    3.0614840914
H        3.2853992167   -3.4329433438   -2.7110922481
H        4.1854343406   -3.0419860723   -1.2438546519
H        5.1931398935    0.2355585307   -2.7594826908
