41

C      9.23859   -0.37051    0.15469
C      7.29547   -1.73696    5.13083
C      6.35184   -2.01557    4.13486
C      7.46032   -0.42664    5.60136
C      5.57073   -0.99449    3.56971
C      6.97378    2.42023    0.27611
C      8.19719    0.57152    0.35015
C      6.70389    0.60001    5.04036
C      5.79175    0.31109    4.01940
C      6.33641    1.52554    1.10339
C      6.61872    2.06223    5.41238
C      5.86322    2.69235    4.22337
C     10.61863    4.25126    0.02348
C     11.70214    2.03615   -0.55124
N     10.10803   -1.13382    0.02785
N      8.12358    1.81265   -0.17769
N      7.11393    0.38519    1.13306
N      5.16261    1.52864    3.57804
N     10.62267    3.02056   -0.79578
O      4.37096    3.08338    1.75059
O      3.96467    0.55233    1.56946
O      9.49887    1.41339   -2.37993
O      8.45773    3.71932   -1.88166
S      4.75061    1.70147    1.97774
S      9.28089    2.57850   -1.55979
H      7.88227   -2.54381    5.55915
H      6.19797   -3.03961    3.80688
H      8.16712   -0.21493    6.39945
H      4.79762   -1.21982    2.84281
H      6.67526    3.40939   -0.04221
H      6.04505    2.17660    6.33776
H      7.59340    2.53107    5.56764
H      5.12558    3.44003    4.50866
H      6.56385    3.14597    3.51251
H      9.90243    4.96620   -0.37728
H     11.61837    4.68442   -0.03873
H     10.38627    4.01864    1.06788
H     11.62907    1.21346   -1.25923
H     11.65152    1.65792    0.47375
H     12.65086    2.55344   -0.70625
H      6.91294   -0.44589    1.69993
