49

C      5.48841   -4.55503    4.02831
C      4.14980   -4.67356    4.40582
C      5.82542   -4.18571    2.72391
C      6.92781    0.50346    0.85606
C      3.48209   -4.06563    2.16903
C      5.13579    2.59300    1.46111
C      0.57896   -3.96104    3.20168
C      1.15117   -5.22210    4.93177
C      5.53331    0.24521    0.88740
C      3.12273   -4.43244    3.47724
C      1.70699   -4.53885    3.85403
C      4.81709   -3.93713    1.78189
C      4.62682    1.29625    1.18351
C      7.40599    1.76519    1.12801
C      6.49484    2.82073    1.43732
C      4.92788   -1.03711    0.63778
C      2.84013   -0.10964    0.94505
C      1.35632   -0.36421    0.98742
C      6.12529   -4.43039   -0.35171
C      6.29302    5.14201    1.99900
C      5.15132   -3.49100    0.36357
N     -0.56747   -4.25438    3.81699
N      3.26943    1.11009    1.21152
N      3.60992   -1.19537    0.65986
N     -0.19350   -5.02391    4.86564
N      5.70417   -2.12848    0.33885
O      8.74992    2.02006    1.09990
O      7.11750    4.01777    1.68538
H      6.27215   -4.74091    4.75855
H      3.90308   -4.93104    5.43269
H      6.87355   -4.08962    2.44916
H      7.65563   -0.26248    0.60534
H      2.70797   -3.86065    1.43624
H      4.41767    3.37266    1.68645
H      0.56290   -3.33186    2.32082
H      1.59911   -5.83188    5.70451
H      1.03721   -0.91713    0.09867
H      1.11189   -0.97978    1.86089
H      0.80866    0.57653    1.05778
H      7.10156   -4.45908    0.14577
H      5.72953   -5.44948   -0.35716
H      6.27818   -4.10332   -1.38451
H      6.97381    5.97859    2.15841
H      5.71398    4.95702    2.91043
H      5.61437    5.36980    1.16968
H      4.22011   -3.44951   -0.20312
H     -0.90449   -5.38461    5.48701
H      6.67962   -2.05888    0.59712
H      8.87127    2.96278    1.31190
