50

C     -5.79524   -2.54539    5.70291
C     -6.23520   -3.21508    6.84043
C     -4.10501   -2.81767    3.69588
C     -4.73985   -5.09463    6.43451
C     -4.80818   -3.15467    4.90850
C     -5.72416   -4.47948    7.21420
C     -4.30975   -4.41286    5.30291
C     -3.25677   -3.85262    3.44070
C     -2.28704   -4.04347    2.33767
C     -5.42777   -4.76214    9.73607
C     -5.81638   -4.50051   12.27254
C     -4.92139   -5.68313   12.09378
C      1.75122   -5.20020    0.53609
C      1.36608   -5.31258    3.00907
C      1.94858   -6.74791    0.55651
C      1.54244   -6.85969    2.92333
C     -0.27925   -7.07427    1.37779
C     -5.94201   -5.34952   11.00741
C      0.78443   -4.82266    1.67241
C     -0.55691   -5.53921    1.39939
C     -6.21390   -5.14024    8.47571
N      1.13559   -7.38525    1.60785
N     -1.58405   -5.21062    2.38259
O     -2.15565   -3.19149    1.45425
O     -4.44574   -4.03538    9.70765
O     -3.35956   -4.84663    4.40924
H     -6.20565   -1.57534    5.43666
H     -6.99394   -2.75417    7.46842
H     -4.19871   -1.93222    3.08220
H     -4.32208   -6.06087    6.70313
H     -6.63302   -4.56263   12.98510
H     -5.37960   -3.51685   12.13337
H     -3.88499   -5.49118   11.83543
H     -5.10866   -6.57633   12.68171
H      2.70489   -4.68008    0.67701
H      1.34551   -4.86675   -0.42574
H      0.70464   -5.03191    3.83528
H      2.32546   -4.81708    3.19288
H      1.66775   -7.19517   -0.40258
H      2.99508   -7.01149    0.73933
H      2.58430   -7.15005    3.09163
H      0.94320   -7.36981    3.68575
H     -0.86969   -7.58414    2.14856
H     -0.57573   -7.50426    0.41640
H     -6.81275   -5.99411   10.92814
H      0.61304   -3.74380    1.69163
H     -0.93521   -5.19917    0.43173
H     -7.26801   -4.89912    8.66251
H     -6.17372   -6.23424    8.39208
H     -1.73627   -5.82700    3.17111
