30

C      1.96858    6.11747    2.08368
C      2.83005    6.33285    3.16480
C      1.52884    4.82617    1.78681
C      3.26883    5.25671    3.94170
C      1.95615    3.74010    2.55692
C      2.83558    3.97674    3.61783
C      1.17596    0.36805    1.24068
C      0.62694    0.28613    2.46498
C      1.76884    1.73081    1.06385
C      0.81745    1.59134    3.17223
C      1.19181   -0.73541    0.23232
C     -0.07701   -0.91380    3.01095
C      0.81398   -2.06496    0.91365
C     -0.38250   -1.90210    1.86875
N      1.52626    2.42098    2.27228
O      2.34452    2.18095    0.09165
O      0.43341    1.91280    4.27876
F      3.28954    2.92562    4.33703
H      1.63338    6.95350    1.47709
H      3.16589    7.33781    3.40436
H      0.85682    4.64462    0.95409
H      3.94504    5.39147    4.78019
H      0.48445   -0.49671   -0.57319
H      2.17643   -0.79488   -0.24369
H      0.55786   -1.38422    3.77363
H     -0.99058   -0.60785    3.53199
H      0.58895   -2.81959    0.15320
H      1.67794   -2.43343    1.48087
H     -0.66596   -2.87363    2.28605
H     -1.24732   -1.53608    1.30106
