25

C      2.30560   -0.26738    2.44400
C     -0.12430   -2.24413    2.18421
C      3.02451    0.17961    3.70678
C      0.34396   -0.74609    0.14212
C     -1.18483   -4.43914    2.10232
C     -2.23136   -2.60167    0.84627
C     -0.00611   -0.79351    1.63996
N      0.93696   -0.04285    2.46486
N     -1.13341   -3.03666    1.69821
O      2.90520   -0.75738    1.49458
O      0.67752   -2.65393    3.02411
H      3.03094   -0.66018    4.41003
H      4.05631    0.43232    3.45955
H      2.54265    1.03430    4.19195
H      1.22501   -1.34782   -0.07255
H     -0.49404   -1.10157   -0.46157
H      0.56093    0.28651   -0.14405
H     -2.02787   -4.61922    2.78194
H     -0.25760   -4.69653    2.61071
H     -1.30852   -5.07356    1.21699
H     -2.11797   -2.97457   -0.17994
H     -2.31386   -1.51699    0.81329
H     -3.17375   -2.99253    1.24739
H     -0.97079   -0.29179    1.77910
H      0.58317    0.14280    3.39599
