34

C      0.46723    1.45415    2.36026
C      0.05558    2.01697    3.54669
C      2.82991   -1.37933    4.12220
C      1.31068    0.33484    2.69855
C      1.37569    0.30117    4.11647
C      2.10135   -0.65240    2.04206
C      3.09736   -1.77021    0.10230
C      0.98901   -0.59993   -0.16752
C      3.47221   -1.36370   -1.32000
C      1.39323   -0.20114   -1.58273
C      0.41378    1.61777    6.02556
C      2.64036   -0.87772   -3.53566
N      2.10965   -0.53990    4.86457
N      2.86140   -1.48193    2.78237
N      0.59628    1.31899    4.61493
N      2.17701   -0.78111    0.66955
N      2.28514   -1.20377   -2.16053
H      0.20742    1.83523    1.38329
H     -0.58094    2.87477    3.72057
H      3.46638   -2.07842    4.66236
H      2.63243   -2.76702    0.09755
H      3.98644   -1.82284    0.72841
H      0.33688    0.15686    0.25842
H      0.42344   -1.54407   -0.20930
H      4.06710   -0.43017   -1.28203
H      4.10663   -2.14389   -1.75465
H      0.49382   -0.12865   -2.20444
H      1.86724    0.79996   -1.55468
H     -0.64106    1.53268    6.30560
H      0.99617    0.89619    6.59917
H      0.76723    2.62797    6.25551
H      3.26942   -1.67118   -3.95189
H      3.18933    0.07921   -3.62540
H      1.73353   -0.80902   -4.14551
