20

C     -0.01972   -1.60840   -1.50879
C      1.21313    1.13527    0.14854
C     -0.81578   -0.39564    0.23153
C      2.51529    1.40740   -0.57383
C     -0.70239   -0.90469    1.66268
C     -1.92545    0.62892    0.03369
N      0.90648   -0.73452   -1.38153
N      0.48764    0.06637   -0.31204
O      0.80200    1.81136    1.09398
O     -1.07019   -1.53989   -0.65476
H     -0.02794   -2.39914   -2.24757
H      2.33856    1.59751   -1.63602
H      3.18260    0.54344   -0.51087
H      2.98213    2.27620   -0.10990
H      0.09105   -1.65339    1.73374
H     -1.64884   -1.36047    1.96668
H     -0.46986   -0.07167    2.32788
H     -1.97265    0.93441   -1.01492
H     -1.72707    1.50460    0.65362
H     -2.88568    0.19034    0.31924
