34

C     -0.85093   -3.97266   -0.37583
C     -1.54459   -5.15513   -0.28185
C      2.46997   -5.34198    1.60141
C      0.42771   -4.18358    0.26479
C      0.43457   -5.52468    0.72946
C      1.61796   -3.46055    0.55178
C      0.60424    0.97181   -1.53864
C      1.62636   -0.03198   -0.99171
C     -0.43900    1.33785   -0.48045
C     -0.11815   -0.75979    0.65952
C      0.90266   -1.23682   -0.38648
C     -2.16190    0.47974    0.98179
N      1.42314   -6.14453    1.39388
N      2.61960   -4.06144    1.22928
N     -0.76610   -6.09351    0.38399
N     -1.09409    0.13928    0.04831
N      1.86585   -2.17229    0.17105
H     -1.23212   -3.07582   -0.84239
H     -2.53467   -5.40754   -0.63608
H      3.31000   -5.77571    2.14149
H      1.11158    1.87983   -1.88226
H      0.09182    0.53645   -2.40440
H      2.31143   -0.36390   -1.77905
H      2.23386    0.44914   -0.21138
H      0.04677    1.91485    0.33319
H     -1.20514    1.98530   -0.92047
H     -0.64480   -1.61976    1.08180
H      0.43100   -0.27277    1.49129
H      0.36070   -1.73895   -1.19204
H     -2.65899   -0.43384    1.32271
H     -2.90685    1.10523    0.47929
H     -1.79821    1.02646    1.87244
H     -1.02023   -7.04714    0.60264
H      2.72658   -1.80066    0.55712
