30

C      5.79339   -1.40557   -1.44761
C      4.76126   -0.54902   -1.84206
C      5.81792   -1.89574   -0.13828
C      3.77085   -0.17179   -0.93082
C      4.82485   -1.51986    0.76984
C      3.80014   -0.64272    0.38923
C      3.72700    3.41544    1.68692
C      3.60907    4.46018    0.59145
C      4.45970    0.73700    3.09718
C      2.76142   -0.20188    1.40313
C      3.19289    1.01676    2.26055
N      3.30381    2.16769    1.35907
O      4.19208    3.71849    2.79447
O      4.50905    1.46882    4.30508
O      1.55821    0.11429    0.68427
H      6.56281   -1.69954   -2.15671
H      4.72191   -0.17961   -2.86371
H      6.60466   -2.57686    0.17526
H      2.95208    0.46152   -1.25709
H      4.84867   -1.92251    1.77916
H      2.91682    5.23888    0.92404
H      4.58645    4.92822    0.45123
H      3.26380    4.05796   -0.36462
H      5.34827    0.89916    2.47201
H      4.44830   -0.31653    3.39256
H      2.57313   -1.02814    2.10039
H      2.38709    1.20257    2.98745
H      2.83212    2.05785    0.47000
H      4.48665    2.41463    4.04277
H      0.86928    0.32814    1.33419
