34

C      0.25295   -3.87960   -1.52586
C      0.36824   -2.69866   -2.31807
C     -0.77784   -4.02206   -0.63960
C     -0.57076   -1.71982   -2.15839
C     -1.78889   -2.99675   -0.46381
C     -2.90678   -0.24989    0.28800
C     -2.19829    0.23835    2.57265
C     -0.45300   -0.00667    0.89705
C     -1.46828   -0.78398    3.44306
C      0.26767   -1.01952    1.78805
C      0.69206   -1.66630    4.07148
C     -2.60041   -0.77292   -1.12914
N     -1.59825   -1.83799   -1.26027
N     -1.88713   -0.01497    1.16538
N     -0.02216   -0.74449    3.19588
O     -2.74950   -3.05921    0.30738
O     -4.08447   -0.02166    0.55889
H      0.99128   -4.67100   -1.63178
H      1.16969   -2.56653   -3.03551
H     -0.89680   -4.91015   -0.02798
H     -0.54507   -0.79695   -2.72945
H     -3.27714    0.16529    2.70134
H     -1.87733    1.25364    2.83946
H     -0.06872    0.99655    1.12675
H     -0.24605   -0.20722   -0.15018
H     -1.64627   -0.54875    4.49810
H     -1.88821   -1.78629    3.24109
H     -0.03496   -2.04228    1.49923
H      1.34842   -0.93300    1.62761
H      0.49566   -1.40767    5.11693
H      1.76987   -1.58068    3.89764
H      0.40009   -2.72210    3.91715
H     -2.29109    0.06077   -1.76521
H     -3.56338   -1.14057   -1.48537
