17   

C        5.9127660731    0.1312494783   -0.8488476064
C        4.6764425716   -0.6282312984   -1.0436197808
C        5.9666043991    1.0667090262    0.1538356054
C        3.5816452153   -0.4470019345   -0.2372720023
C        4.8045923889    1.2824756558    0.9911285009
C        2.2659951024   -1.1421536125   -0.4086026817
C        2.0920649294   -2.2872374858   -1.3967146911
N        3.6685258992    0.5362818062    0.7788200271
O        4.8099936086    2.1153087494    1.8802103798
O        1.2844112229   -0.7092932295    0.1842437942
H        6.7726185148   -0.0385979848   -1.4888368043
H        4.6451539237   -1.3473431061   -1.8544820130
H        6.8502350676    1.6602692824    0.3433030523
H        2.7535800668   -3.1134924302   -1.1233397521
H        2.3290171345   -1.9478712583   -2.4081501412
H        1.0574986736   -2.6416175496   -1.3761040188
H        2.8692526536    0.7584066040    1.3641164584
17   

C        5.9018612393    0.1669834833   -0.8708673220
C        4.6589055294   -0.5745044709   -1.0908287193
C        5.9740414233    1.0445219020    0.1816224250
C        3.5834660551   -0.4497416214   -0.2487894074
C        4.8231849559    1.2202920564    1.0430801334
C        2.2471792405   -1.0928431639   -0.4736933631
C        2.0838181994   -2.2706344941   -1.4250438419
N        3.6832745611    0.4862091203    0.8100166255
O        4.8398611433    2.0108246683    1.9698361672
O        1.2419971995   -0.5386245452   -0.0465966649
H        6.7510695492    0.0314287539   -1.5328683223
H        4.6078183791   -1.2320403672   -1.9511720199
H        6.8624030152    1.6243017450    0.3906146212
H        2.6481752184   -3.1272842565   -1.0470538831
H        2.4436173289   -2.0061937167   -2.4220782143
H        1.0280162938   -2.5477927831   -1.4945072063
H        2.8830209794    0.7099605941    1.3929203017
17   

C        5.8858979155    0.2237363113   -0.9472987616
C        4.6328663803   -0.5018082196   -1.1635495827
C        6.0078654000    1.0224110321    0.1616960211
C        3.6045282893   -0.4538555016   -0.2576512753
C        4.8964180691    1.1356831180    1.0829047332
C        2.2465296070   -1.0559567065   -0.4933323175
C        2.0634402258   -2.2778225709   -1.3860422434
N        3.7470338508    0.4160281911    0.8515018527
O        4.9530621279    1.8620399152    2.0592650930
O        1.2512824461   -0.4054407909   -0.2061265544
H        6.7028669766    0.1395418814   -1.6566961479
H        4.5400900306   -1.0789417569   -2.0757609558
H        6.9055191420    1.5876033499    0.3709291091
H        2.3952141746   -3.1702791488   -0.8486702001
H        2.6329518430   -2.1794324174   -2.3116951445
H        1.0064254190   -2.3957817630   -1.6412450749
H        2.9692082485    0.6193657654    1.4704372460
17   

C        5.8714853789    0.2873431806   -0.9952868985
C        4.6132479791   -0.4209492860   -1.2363174634
C        6.0094555937    1.0214957100    0.1557442951
C        3.6013425379   -0.4282471819   -0.3126142550
C        4.9078448498    1.0882434003    1.0934607472
C        2.2352875803   -1.0068648768   -0.5900788114
C        2.0793471081   -2.3097705040   -1.3668320274
N        3.7516587792    0.3889358288    0.8346685605
O        4.9780247875    1.7568539603    2.1093780432
O        1.2549137168   -0.2830536710   -0.5134046149
H        6.6789643415    0.2416567161   -1.7189218049
H        4.4978769566   -0.9331180619   -2.1844070922
H        6.9117644304    1.5708980703    0.3859525226
H        2.0584470564   -3.1439865396   -0.6605136592
H        2.9038536847   -2.4635751156   -2.0644465727
H        1.1405979154   -2.3008227635   -1.9276238406
H        2.9829047678    0.5696131109    1.4708879864
17   

C        5.8518040249    0.4161659399   -1.0611116403
C        4.5899982013   -0.2778304771   -1.3226331220
C        6.0069396488    1.0813188320    0.1291628899
C        3.5912782317   -0.3358162693   -0.3893739771
C        4.9177138696    1.0943863700    1.0839663439
C        2.2241240464   -0.9227172934   -0.6800819235
C        2.1137679262   -2.3210515853   -1.2735885604
N        3.7530793763    0.4199336701    0.7976254700
O        5.0062095261    1.6918360936    2.1418952226
O        1.2725267753   -0.1776292616   -0.8361910436
H        6.6488998810    0.4106807161   -1.7975475894
H        4.4519946485   -0.7485302608   -2.2900242591
H        6.9141682905    1.6135691253    0.3794607044
H        1.9803168001   -3.0420198959   -0.4626386088
H        3.0170120527   -2.5824475794   -1.8288522456
H        1.2517440202   -2.3794270923   -1.9437135899
H        3.0014656671    0.5567488258    1.4638070983
17   

C        5.8350325256    0.4977307087   -1.1219769351
C        4.5511075813   -0.1149899769   -1.4645072484
C        6.0365554945    0.9364007578    0.1630169721
C        3.5478537131   -0.2468975202   -0.5457813942
C        4.9815905750    0.7784000510    1.1437307076
C        2.2190782802   -0.9123643688   -0.8553202577
C        1.9255248000   -2.2917189628   -0.2850722604
N        3.7964634249    0.1797940690    0.7822029257
O        5.1198541061    1.1515546293    2.2949455181
O        1.2871430145   -0.2533364983   -1.2786800561
H        6.6119347605    0.6082461420   -1.8716395755
H        4.3879756198   -0.4600732867   -2.4803604983
H        6.9607441714    1.4029670813    0.4748620517
H        2.4573374480   -2.4341412630    0.6589380237
H        2.2583412111   -3.0520551303   -0.9966212010
H        0.8517895538   -2.4087103243   -0.1149410661
H        3.0848829858    0.1805841742    1.5035192026
17   

C        5.8157231001    0.6133249539   -1.1628818028
C        4.5367766902    0.0094347126   -1.5381775611
C        6.0367204617    0.9279498817    0.1542264117
C        3.5413465505   -0.2103252775   -0.6269185319
C        5.0070369163    0.6479614449    1.1330917916
C        2.2620803939   -0.9397178983   -0.9788140454
C        1.8268456247   -2.1371052315   -0.1417807644
N        3.8250959251    0.0664773267    0.7354019683
O        5.1635408129    0.8981221268    2.3148016847
O        1.3949635532   -0.3917246713   -1.6356852497
H        6.5746742102    0.8101737519   -1.9132440184
H        4.3680060949   -0.2594456464   -2.5761691052
H        6.9588192628    1.3795646147    0.4930966872
H        2.2192225225   -2.0744860118    0.8752874196
H        2.2067887561   -3.0506940675   -0.6070010160
H        0.7355016966   -2.1915088542   -0.1000223641
H        3.1399286479   -0.0330215043    1.4747174415
17   

C        5.7796575730    0.7641061768   -1.1527671689
C        4.5144051611    0.1466355658   -1.5509756486
C        6.0252821781    0.9654195343    0.1821275036
C        3.5492855179   -0.1866642816   -0.6395001967
C        5.0344195336    0.5564541440    1.1558573696
C        2.3169975310   -0.9543562677   -1.0464371933
C        1.7707542871   -2.0499541715   -0.1379257970
N        3.8613320697   -0.0272295762    0.7356495946
O        5.2166728914    0.6974049557    2.3518537881
O        1.5514733184   -0.5003881308   -1.8801609597
H        6.5102921168    1.0562853767   -1.9001716045
H        4.3301671309   -0.0425419175   -2.6041285783
H        6.9401680179    1.4181450905    0.5386089560
H        1.7608164505   -1.7274047308    0.9050251423
H        2.3977596113   -2.9406657597   -0.2331608925
H        0.7505537053   -2.3084049671   -0.4357482841
H        3.2131010474   -0.2420755045    1.4831742164
17   

C        5.7675515097    0.8672037862   -1.1397342637
C        4.5300369650    0.2111095919   -1.5620081477
C        6.0215490404    0.9980655109    0.2026827547
C        3.5998078717   -0.2308578743   -0.6592301219
C        5.0668227290    0.4800663587    1.1612593669
C        2.4004493313   -1.0193468075   -1.1057766625
C        1.7554585597   -2.0309306955   -0.1667096901
N        3.9164420030   -0.1329918982    0.7203334500
O        5.2601442389    0.5553824290    2.3614503732
O        1.7582558882   -0.6634972888   -2.0813397249
H        6.4717247604    1.2417552953   -1.8757137564
H        4.3395720048    0.0791101828   -2.6229801693
H        6.9179598558    1.4737098019    0.5758603980
H        1.5002601941   -1.5615771824    0.7859629391
H        2.4487765349   -2.8582780110    0.0078355420
H        0.8431931330   -2.4297263430   -0.6196868970
H        3.2996607312   -0.4436902223    1.4606286737
17   

C        5.7498131094    0.9399042026   -1.1210935507
C        4.5306667650    0.2565790621   -1.5532354355
C        6.0336314546    1.0015490162    0.2205699622
C        3.6525239341   -0.2904090779   -0.6549309504
C        5.1275077717    0.3869771443    1.1697450008
C        2.4539807443   -1.0677588776   -1.1180386673
C        1.7267830161   -2.0103879473   -0.1678441678
N        3.9924421946   -0.2490780713    0.7216528424
O        5.3469685577    0.4047408146    2.3676798869
O        1.9254363648   -0.7978429940   -2.1860423422
H        6.4171186925    1.3889990253   -1.8496747182
H        4.3151709672    0.1887097960   -2.6155776922
H        6.9186187898    1.4935515600    0.5997463086
H        1.4063563371   -1.4730789594    0.7278919398
H        2.3924800309   -2.8304477296    0.1147778910
H        0.8457237928   -2.4292616914   -0.6625829292
H        3.4137906832   -0.6374875128    1.4559874131
17   

C        5.7126382227    0.9997457926   -1.1255436857
C        4.5285726370    0.2636271177   -1.5683312255
C        6.0118009833    1.0287928624    0.2139736013
C        3.7054487251   -0.3787117590   -0.6805186374
C        5.1546288253    0.3315158384    1.1515470486
C        2.5197847827   -1.1718559100   -1.1493680730
C        1.7323578373   -2.0453574513   -0.1815351484
N        4.0499770246   -0.3505234664    0.6951406202
O        5.3867533885    0.3237826318    2.3472032882
O        2.1089247694   -1.0374983989   -2.2928067971
H        6.3425682716    1.5128388050   -1.8450869487
H        4.2996766382    0.2316039743   -2.6295742102
H        6.8730845849    1.5563745554    0.5998363832
H        1.3460205170   -1.4392852380    0.6417414609
H        2.3790380515   -2.8331762271    0.2139517238
H        0.8904720502   -2.5104978091   -0.7024954092
H        3.5081014411   -0.8023174809    1.4212311664
17   

C        5.6717601540    1.0639927161   -1.1340200410
C        4.5259456542    0.2763829557   -1.5887287339
C        5.9832753716    1.0694375164    0.2030807876
C        3.7611081864   -0.4517666124   -0.7150190569
C        5.1749174805    0.2996804234    1.1273743298
C        2.5868448279   -1.2571693550   -1.1917704492
C        1.7421649684   -2.0633934856   -0.2140070672
N        4.1046552225   -0.4287485609    0.6608419037
O        5.4151979338    0.2758779425    2.3212088933
O        2.2979993940   -1.2712463204   -2.3796747577
H        6.2640277461    1.6334500460   -1.8430733555
H        4.2820159130    0.2740281510   -2.6470964071
H        6.8180893705    1.6325042921    0.5968841736
H        1.2977868288   -1.3975361496    0.5303329525
H        2.3637850901   -2.8108485454    0.2857756558
H        0.9393918038   -2.5757376210   -0.7521466339
H        3.5985309374   -0.9344459152    1.3771302594
17   

C        5.5966971388    1.1213958022   -1.1452376923
C        4.4926711631    0.2748161843   -1.5973546048
C        5.9274578523    1.1229418938    0.1872461803
C        3.7972412227   -0.5256767852   -0.7290774165
C        5.1780629417    0.2934380603    1.1095479411
C        2.6353004122   -1.3529533395   -1.1978756225
C        1.7416877863   -2.0790380316   -0.2009292237
N        4.1453161083   -0.4886528530    0.6453413725
O        5.4318742080    0.2702732138    2.3005917283
O        2.4609359928   -1.5396935368   -2.3933267147
H        6.1432202678    1.7371306212   -1.8523437085
H        4.2245903137    0.2835503888   -2.6498407005
H        6.7335495858    1.7276348754    0.5791646366
H        1.2481173002   -1.3520840699    0.4496000010
H        2.3366306909   -2.7683987111    0.4033828650
H        0.9760382850   -2.6488176807   -0.7353947591
H        3.6827966600   -1.0378490911    1.3590753937
17   

C        6.2674729502   -0.1045814022   -0.0492452905
C        5.2016605974   -1.0996667743   -0.1668776868
C        5.9286241856    1.2245335874    0.0059152997
C        3.8791654531   -0.7420714901   -0.1881625351
C        4.5326115442    1.6074632705   -0.0589249240
C        2.8031174041   -1.7669852026   -0.4035259428
C        1.4062803231   -1.3442748593   -0.8399337185
N        3.5603872701    0.6400881102   -0.1715984325
O        4.1872768117    2.7750963258   -0.0288847442
O        2.9716906851   -2.9186865758   -0.0316716827
H        7.3070286055   -0.4134288901   -0.0073832832
H        5.4690867797   -2.1502859580   -0.2324679917
H        6.6718399659    2.0049317942    0.0933959621
H        1.4530773865   -0.9023615934   -1.8389584195
H        0.9928714500   -0.6174950507   -0.1366558567
H        0.7478280011   -2.2170828955   -0.8736109549
H        2.6143799635    0.9996976710   -0.1979943480
17   

C        6.2585887644   -0.1205195826   -0.1273906408
C        5.1842672215   -1.1105400017   -0.2042676826
C        5.9276693223    1.2060480863   -0.0072502543
C        3.8645757574   -0.7562803635   -0.1116008681
C        4.5314333374    1.5902269268    0.0330741758
C        2.7738708443   -1.7682767120   -0.3256359304
C        1.4176343239   -1.3308021369   -0.8645231141
N        3.5525755687    0.6262178800   -0.0453835790
O        4.1909611938    2.7565656126    0.1181448495
O        2.8478610604   -2.8717291498    0.1917436240
H        7.2978488163   -0.4307408418   -0.1663249303
H        5.4415940296   -2.1581662511   -0.3292653069
H        6.6765748308    1.9834605369    0.0545700905
H        1.5313209057   -0.9813955180   -1.8944016082
H        1.0016423245   -0.5286603961   -0.2509080138
H        0.7243132183   -2.1767995059   -0.8575377207
H        2.6079060792    0.9857231960    0.0124533463
17   

C        6.2293093513   -0.1398800749   -0.2260392761
C        5.1392162191   -1.1153863634   -0.2540694984
C        5.9254845039    1.1852044843   -0.0399002604
C        3.8350699803   -0.7546262144   -0.0481453543
C        4.5411406695    1.5811615270    0.1151154183
C        2.7100581202   -1.7427273109   -0.2256238851
C        1.4088061638   -1.3009386177   -0.8856797590
N        3.5479457656    0.6296743687    0.0747080409
O        4.2221107311    2.7472361695    0.2633742216
O        2.6670714108   -2.7597157670    0.4460183003
H        7.2589123189   -0.4593326843   -0.3512462078
H        5.3733525572   -2.1605222811   -0.4322106413
H        6.6864033761    1.9527006636   -0.0081569797
H        1.5608339564   -1.2296276529   -1.9661309088
H        1.0835681288   -0.3312447818   -0.5038462006
H        0.6229101671   -2.0365967120   -0.6920868163
H        2.6166521479    0.9942058160    0.2327088603
17   

C        6.1972395080   -0.1522425314   -0.3786249625
C        5.0916882610   -1.1108512265   -0.3862459378
C        5.9312890594    1.1608423823   -0.0824033136
C        3.8129150645   -0.7479914620   -0.0658629252
C        4.5698572475    1.5618450825    0.2050287532
C        2.6433006371   -1.7024542371   -0.1830686826
C        1.4164716865   -1.2908305730   -0.9887691803
N        3.5601860020    0.6276261110    0.1723423470
O        4.2845608261    2.7179992594    0.4608167709
O        2.4842602734   -2.5917580194    0.6338754262
H        7.2092305117   -0.4747812454   -0.6014257491
H        5.2964932085   -2.1460684626   -0.6403898948
H        6.7055539557    1.9150936198   -0.0564148065
H        1.5250063459   -1.6604431318   -2.0120185077
H        1.3078464990   -0.2047649558   -1.0199380545
H        0.5141461394   -1.7269165570   -0.5513089535
H        2.6532871219    0.9839383648    0.4489564507
17   

C        6.1446675155   -0.1226428198   -0.4852602279
C        5.0176085293   -1.0558283334   -0.4961741938
C        5.9301700625    1.1685284042   -0.0716092773
C        3.7670383238   -0.6799469887   -0.0927472970
C        4.6004299557    1.5744903420    0.3366600327
C        2.5672923993   -1.6092903455   -0.1280453662
C        1.4910437359   -1.3973536213   -1.1819655885
N        3.5657186484    0.6683790101    0.2931534646
O        4.3663415120    2.7106414250    0.7081703691
O        2.3018030336   -2.3047498404    0.8352369586
H        7.1334176826   -0.4469065010   -0.7934993700
H        5.1849213229   -2.0779917379   -0.8199639289
H        6.7238606951    1.9018733849   -0.0353296496
H        1.7369955741   -1.9869778479   -2.0691131106
H        1.4359529424   -0.3426303424   -1.4626594789
H        0.5190749096   -1.7193717679   -0.7984035705
H        2.6889259562    1.0091856191    0.6696244766
17   

C        6.0953810062   -0.0704638400   -0.5602075134
C        4.9153904775   -0.9320337403   -0.6467508212
C        5.9836391851    1.1435877544    0.0697579080
C        3.6942522182   -0.5328527904   -0.1762688428
C        4.7123914214    1.5320259528    0.6453549897
C        2.4901168763   -1.4522332948   -0.1241555236
C        2.0591404874   -2.2028851289   -1.3773920532
N        3.6284093186    0.6921921713    0.5316859108
O        4.5767665163    2.5908538267    1.2322779641
O        2.1296882091   -1.9088465759    0.9467050932
H        7.0439580821   -0.3879249483   -0.9811005523
H        5.0269310088   -1.9150317945   -1.0914062815
H        6.8191150374    1.8229474579    0.1669946023
H        2.9024516210   -2.3474976326   -2.0559133433
H        1.2902210414   -1.6216683617   -1.8933230068
H        1.6440874806   -3.1781774133   -1.1088749247
H        2.8030729244    0.9828414634    1.0433295263
17   

C        6.0254653256   -0.0230625953   -0.6817054210
C        4.8362524857   -0.8712264875   -0.7783134840
C        5.9435261049    1.1576172067    0.0127061596
C        3.6299478674   -0.4837633315   -0.2568374593
C        4.6925053291    1.5281734037    0.6411849341
C        2.4285075552   -1.3949924198   -0.1932650926
C        2.0853348449   -2.3210749286   -1.3551077134
N        3.5952167991    0.7093815665    0.5059131962
O        4.5885976719    2.5505871430    1.2953470270
O        1.9368128236   -1.6581980057    0.8929816472
H        6.9598949808   -0.3266399306   -1.1426170913
H        4.9424700878   -1.8327620790   -1.2668441752
H        6.7889721714    1.8223231541    0.1239884381
H        2.9749777364   -2.6077663856   -1.9176623815
H        1.3964656700   -1.8049441860   -2.0291300500
H        1.5985594454   -3.2259835319   -0.9809310192
H        2.7882090002    0.9687259004    1.0625811171
17   

C        5.9882196727    0.0188101326   -0.7404299970
C        4.7850138696   -0.8075839255   -0.8528403173
C        5.9396172501    1.1631424410    0.0150573578
C        3.5972790777   -0.4367718741   -0.2765392429
C        4.7080002263    1.5200773962    0.6877233045
C        2.3735758340   -1.3102375635   -0.2338681400
C        2.0955629820   -2.3416931014   -1.3211612454
N        3.5955158860    0.7256626266    0.5333883409
O        4.6353424987    2.5085915823    1.3959909687
O        1.7457838108   -1.4009038984    0.8119685009
H        6.9073614547   -0.2724945100   -1.2385187033
H        4.8654473502   -1.7354901376   -1.4063226621
H        6.7972332896    1.8094101606    0.1408952784
H        2.9946176427   -2.9098821667   -1.5655419995
H        1.7331834328   -1.8319458405   -2.2179113117
H        1.3262990005   -3.0409602152   -0.9811888225
H        2.7986334628    0.9681778945    1.1127026585
17   

C        5.9563798200    0.0731871299   -0.8140684682
C        4.7376686839   -0.7309315204   -0.9200157073
C        5.9544899208    1.1773827888    0.0007165597
C        3.5838576038   -0.3849710869   -0.2639081742
C        4.7549168980    1.5173912234    0.7376585235
C        2.3375478922   -1.2189739994   -0.2410791133
C        2.0941115392   -2.3102744266   -1.2748700809
N        3.6265794024    0.7442140181    0.5904795797
O        4.7240857944    2.4732138372    1.4923429515
O        1.6022919691   -1.1609443702    0.7366537706
H        6.8501079075   -0.2022348214   -1.3646765685
H        4.7716673139   -1.6220881736   -1.5363417477
H        6.8255980508    1.8058485559    0.1240527570
H        2.9130502869   -3.0332611784   -1.2635159073
H        2.0148922986   -1.8618134383   -2.2687672308
H        1.1602728584   -2.8332205227   -1.0494088033
H        2.8437985990    0.9801598191    1.1919903572
17   

C        5.9245422493    0.1078726232   -0.8275018553
C        4.7104396486   -0.6967258578   -0.9751631210
C        5.9282781630    1.1458831516    0.0701736714
C        3.5717258454   -0.4260322904   -0.2598670717
C        4.7381279283    1.4195456809    0.8489444275
C        2.3128572554   -1.2359473146   -0.3117005409
C        2.1179178681   -2.3404407241   -1.3412211178
N        3.6160520635    0.6448087139    0.6665383026
O        4.7098248869    2.3215714557    1.6672666272
O        1.4661278265   -1.0745732063    0.5597979753
H        6.8098147561   -0.1142279878   -1.4146526449
H        4.7334256105   -1.5265371388   -1.6726511529
H        6.7958308077    1.7721622729    0.2255563739
H        2.8968970553   -3.0986015608   -1.2284938514
H        2.1617292156   -1.9173999953   -2.3482723187
H        1.1417013033   -2.8127494626   -1.1988791509
H        2.8253059607    0.8506694925    1.2691151276
17   

C        5.9368583347    0.0968559835   -0.8680463054
C        4.7048948049   -0.6775506742   -1.0288789046
C        5.9794933917    1.0878011557    0.0804156101
C        3.5948888381   -0.4396215293   -0.2587513919
C        4.8110688167    1.3443225445    0.8970191982
C        2.2999404417   -1.1843748567   -0.3600517874
C        2.1025495442   -2.3101609838   -1.3656053647
N        3.6753605562    0.5908631414    0.7100494780
O        4.8120277523    2.2155174912    1.7485645299
O        1.3782794544   -0.8762857794    0.3874910119
H        6.8036269251   -0.1080680541   -1.4881269512
H        4.6894791445   -1.4564319139   -1.7830835465
H        6.8606238780    1.6923853669    0.2450474803
H        2.8229317024   -3.1094860195   -1.1735486188
H        2.2407010050   -1.9291936607   -2.3807564757
H        1.0910280545   -2.7162622080   -1.2748377409
H        2.8848870989    0.8109903079    1.3080712075
