24   
Generated by ForceBalance from scan.xyz: Frame 1 of 24
C       -0.6159218476   -1.3444637211    0.6578580982
C       -4.7586708353    0.0914813680    1.8015934049
C       -3.4830766485    1.6498523076    3.1436601606
C       -5.9438672922    0.5885728266    2.3414430318
C       -4.6573394037    2.1495886828    3.7026402081
C       -3.5052845932    0.5965431477    2.2063067891
C       -5.8709119823    1.6019095064    3.2937600630
C       -2.2344278899    0.1198791914    1.6591099258
C       -2.7530877934   -2.3233280066    1.4447941193
C       -1.9124135570   -1.1421569886    1.2546027036
C       -2.7724772144   -5.7064972440    0.8455830357
N        0.4378001285   -1.4766239200    0.1789925010
N       -2.4329897109   -3.4314896276    0.8747506952
O       -3.3387938618   -4.4355733300    1.1964529989
F       -7.0188022333    2.0857218450    3.8235800871
H       -4.8137004649   -0.6617085541    1.0228335707
H       -2.5285497477    2.0697558658    3.4502687011
H       -6.9126287791    0.2144806611    2.0252495930
H       -4.6452979175    2.9503552844    4.4353414658
H       -1.4489724003    0.8679751076    1.5774040127
H       -3.6221708653   -2.2573756082    2.0994197345
H       -3.5620139234   -6.4368753776    1.0314659240
H       -1.9017096133   -5.9247330245    1.4721040235
H       -2.4832972982   -5.7184066158   -0.2094507914
24   
Generated by ForceBalance from scan.xyz: Frame 2 of 24
C       -0.6297698223   -1.3241813510    0.5903851308
C       -4.7587683626    0.1106175038    1.7756849995
C       -3.4721019303    1.6073808209    3.1781387197
C       -5.9404578842    0.5989755786    2.3307369873
C       -4.6435187927    2.0968190095    3.7518946274
C       -3.5024675194    0.5893354765    2.2028480882
C       -5.8609326513    1.5758720506    3.3199937588
C       -2.2347561225    0.1202300939    1.6422731859
C       -2.7780200789   -2.3082286077    1.3432243092
C       -1.9247447781   -1.1291052824    1.1923747852
C       -2.7616184759   -5.6713787035    0.9326584761
N        0.4240317897   -1.4501883379    0.1100381978
N       -2.4805674381   -3.3951511700    0.7231266360
O       -3.4132607341   -4.3957485009    1.0048491834
F       -7.0056748812    2.0506046909    3.8641738581
H       -4.8183077127   -0.6130383621    0.9696802123
H       -2.5145346007    2.0067858560    3.5022168112
H       -6.9117617597    0.2460707817    1.9984696595
H       -4.6264171997    2.8700303223    4.5134944686
H       -1.4418463494    0.8631282220    1.5892736169
H       -3.6426094220   -2.2571009389    2.0051550859
H       -3.5581425967   -6.4119135905    1.0264381551
H       -2.0452151078   -5.7836512401    1.7536621662
H       -2.2467582696   -5.7840540073   -0.0264195004
24   
Generated by ForceBalance from scan.xyz: Frame 3 of 24
C       -0.6282568100   -1.3003876745    0.5235488798
C       -4.7503618674    0.1145064732    1.7471656401
C       -3.4606797664    1.5502474217    3.2094019677
C       -5.9319171314    0.5871345659    2.3157972834
C       -4.6319654618    2.0231497869    3.7969580972
C       -3.4929859429    0.5697281246    2.1964982712
C       -5.8506814821    1.5253539990    3.3417220680
C       -2.2259281008    0.1142097848    1.6237952088
C       -2.7860969180   -2.2982039897    1.2377071616
C       -1.9233769190   -1.1194251851    1.1287087436
C       -2.7842983988   -5.6012385517    1.0360763891
N        0.4270893321   -1.4144643183    0.0436060845
N       -2.5090788387   -3.3603045258    0.5686451268
O       -3.4659069557   -4.3595038663    0.8183678330
F       -6.9945497021    1.9852633066    3.8996180912
H       -4.8105731611   -0.5776098244    0.9139874975
H       -2.5023561688    1.9323811356    3.5515601164
H       -6.9037074740    0.2522247609    1.9667765981
H       -4.6138978191    2.7669844365    4.5872249223
H       -1.4281531536    0.8536009669    1.6008106439
H       -3.6450714127   -2.2655561766    1.9083187959
H       -3.5663605515   -6.3619262770    1.0770227348
H       -2.2336796389   -5.5775842869    1.9837198984
H       -2.0931925171   -5.8091519251    0.2126765273
24   
Generated by ForceBalance from scan.xyz: Frame 4 of 24
C       -0.6165705657   -1.2826380196    0.4610735129
C       -4.7375570011    0.1050479105    1.7191724837
C       -3.4494644526    1.4847965402    3.2372411548
C       -5.9194366983    0.5603109595    2.3009757606
C       -4.6211947466    1.9392972620    3.8379689019
C       -3.4811606891    0.5411663992    2.1897573499
C       -5.8391888372    1.4607451492    3.3603879400
C       -2.2133216864    0.1021156402    1.6065899711
C       -2.7838887047   -2.2903660370    1.1337129906
C       -1.9120987866   -1.1133175988    1.0680835065
C       -2.8253181308   -5.4973214342    1.1494692622
N        0.4403461737   -1.3865524488   -0.0177443367
N       -2.5206239727   -3.3257389276    0.4201551395
O       -3.4903320568   -4.3337492398    0.6449334369
F       -6.9836599644    1.9031226641    3.9302843534
H       -4.7965346668   -0.5562314070    0.8611932175
H       -2.4912747897    1.8519223286    3.5957971546
H       -6.8909425765    0.2410747634    1.9368648470
H       -4.6042489485    2.6542310050    4.6544971622
H       -1.4132939799    0.8394648447    1.6134920003
H       -3.6392257267   -2.2768200107    1.8101300776
H       -3.5833187693   -6.2829395135    1.1729671394
H       -2.4417406210   -5.3163617601    2.1614871588
H       -1.9995401475   -5.7863340510    0.4900142824
24   
Generated by ForceBalance from scan.xyz: Frame 5 of 24
C       -0.5973180957   -1.2547425016    0.3971781154
C       -4.7200843703    0.0883893868    1.6917459066
C       -3.4371964417    1.4154295954    3.2605719443
C       -5.9038575422    0.5206151437    2.2871088149
C       -4.6107538780    1.8460791139    3.8749020751
C       -3.4652895278    0.5093379479    2.1803091857
C       -5.8271192200    1.3826993153    3.3782223532
C       -2.1958562313    0.0918155856    1.5853940933
C       -2.7693045654   -2.2816298962    1.0322601657
C       -1.8934471177   -1.1047022374    1.0070613338
C       -2.8878892470   -5.3582492206    1.2619107809
N        0.4609401444   -1.3428330199   -0.0818462138
N       -2.5160343148   -3.2905213304    0.2795611505
O       -3.4870239544   -4.3135086588    0.4890474496
F       -6.9731238598    1.8025828230    3.9612638144
H       -4.7763113105   -0.5414228014    0.8102111940
H       -2.4803290333    1.7712256408    3.6337510943
H       -6.8740991425    0.2132335496    1.9097035040
H       -4.5966879458    2.5315490541    4.7163549425
H       -1.3964423807    0.8292260159    1.6182356382
H       -3.6197958448   -2.2878791379    1.7155239776
H       -3.6241403509   -6.1643512018    1.2881936372
H       -2.6723103584   -5.0159465378    2.2829278457
H       -1.9620120842   -5.7079446437    0.7906107901
24   
Generated by ForceBalance from scan.xyz: Frame 6 of 24
C       -0.5730183037   -1.2230293050    0.3306615085
C       -4.7008992117    0.0587186282    1.6681467979
C       -3.4245927896    1.3470636471    3.2739217465
C       -5.8865573914    0.4646744089    2.2782086452
C       -4.5996481196    1.7511539836    3.9030682617
C       -3.4480273031    0.4732518601    2.1672094884
C       -5.8136427593    1.2941509319    3.3945549357
C       -2.1769459272    0.0817270378    1.5585969087
C       -2.7403017764   -2.2769838492    0.9406010842
C       -1.8683486918   -1.0966083217    0.9471010975
C       -2.9750569228   -5.2058149755    1.3600979963
N        0.4850619213   -1.2913327893   -0.1519279603
N       -2.4899532336   -3.2632607879    0.1582782483
O       -3.4472208480   -4.3087303598    0.3503493906
F       -6.9612849427    1.6885169796    3.9916464907
H       -4.7545016879   -0.5437208848    0.7675007468
H       -2.4695162538    1.6982445070    3.6559069045
H       -6.8553728914    0.1624327005    1.8930657187
H       -4.5887671504    2.4113737882    4.7645278987
H       -1.3823693999    0.8233043295    1.6100952766
H       -3.5852083228   -2.3006268690    1.6309635304
H       -3.6943893385   -6.0271914603    1.3810414038
H       -2.9411756457   -4.7184184735    2.3440791217
H       -1.9781954281   -5.5863929672    1.1071211002
24   
Generated by ForceBalance from scan.xyz: Frame 7 of 24
C       -0.5443745136   -1.1754476301    0.2704786263
C       -4.6789520507    0.0236332829    1.6582188764
C       -3.4095879123    1.3042150583    3.2768628805
C       -5.8661662224    0.3991130511    2.2848207541
C       -4.5858683982    1.6777781526    3.9223285530
C       -3.4291010178    0.4499532816    2.1549187281
C       -5.7962613428    1.2097705107    3.4150226183
C       -2.1577429670    0.0886500435    1.5281342156
C       -2.6897498098   -2.2704198794    0.8877666078
C       -1.8356124479   -1.0777278420    0.9006319379
C       -3.0838465064   -5.0671703846    1.4453270481
N        0.5102831638   -1.2191508080   -0.2222574463
N       -2.4270338185   -3.2430377967    0.0922248829
O       -3.3469250157   -4.3238934293    0.2496428587
F       -6.9449742735    1.5747526772    4.0285213962
H       -4.7296441751   -0.5629103668    0.7468599863
H       -2.4570169449    1.6637713508    3.6573206061
H       -6.8332963731    0.0884335731    1.9020875092
H       -4.5787643557    2.3226593650    4.7953899352
H       -1.3758620786    0.8435279874    1.5790755030
H       -3.5272485185   -2.3045930982    1.5863259476
H       -3.7630656121   -5.9212935433    1.4079912348
H       -3.2871005133   -4.4816317742    2.3514790747
H       -2.0447584968   -5.4173515022    1.4606895433
24   
Generated by ForceBalance from scan.xyz: Frame 8 of 24
C       -0.5228670141   -1.1158423923    0.2110427304
C       -4.6583214927   -0.0031700877    1.6622350970
C       -3.3932855512    1.2926385547    3.2707230091
C       -5.8436803857    0.3428811897    2.3094640931
C       -4.5677814882    1.6367056141    3.9359424515
C       -3.4103846359    0.4459571115    2.1431786559
C       -5.7759477776    1.1469226032    3.4444073408
C       -2.1413082534    0.1150084981    1.4942238972
C       -2.6323310255   -2.2566384011    0.8681928639
C       -1.8045649084   -1.0460620650    0.8644122276
C       -3.2130940886   -4.9472757360    1.4950394595
N        0.5235437732   -1.1356935466   -0.3003867102
N       -2.3498617405   -3.2248482369    0.0724976406
O       -3.2073500733   -4.3447533485    0.1929916827
F       -6.9233136671    1.4828340767    4.0775340768
H       -4.7099632834   -0.5834931931    0.7468563879
H       -2.4431268583    1.6697713078    3.6400162060
H       -6.8095101527    0.0146872124    1.9382211912
H       -4.5609795476    2.2756555673    4.8133507477
H       -1.3766685496    0.8880944012    1.5292693955
H       -3.4546409943   -2.2979471537    1.5826801456
H       -3.7455231141   -5.8912909484    1.3645028392
H       -3.7394787168   -4.3448023556    2.2455931118
H       -2.1871125021   -5.1414608186    1.8282009959
24   
Generated by ForceBalance from scan.xyz: Frame 9 of 24
C       -0.4925682811   -1.0895958692    0.1666583059
C       -4.6332609294   -0.0658042342    1.6707201274
C       -3.3747455439    1.2692555989    3.2514366929
C       -5.8171532772    0.2555182739    2.3335143622
C       -4.5474148572    1.5894485522    3.9321224921
C       -3.3892209691    0.4158392513    2.1291985193
C       -5.7508651318    1.0681755145    3.4623435783
C       -2.1229456210    0.1114440729    1.4603384925
C       -2.5588228843   -2.2810886434    0.8689938103
C       -1.7653410232   -1.0484885109    0.8402716915
C       -3.3442196194   -4.8651335270    1.5054327604
N        0.5454860023   -1.0848454208   -0.3618187253
N       -2.2424454824   -3.2539106642    0.0883999492
O       -3.0336201635   -4.4032565118    0.1805649716
F       -6.8963986665    1.3806340539    4.1114258793
H       -4.6841207553   -0.6529790016    0.7595834969
H       -2.4283476485    1.6711382354    3.6039383152
H       -6.7805465704   -0.0974617878    1.9788944286
H       -4.5424972841    2.2339268281    4.8055154249
H       -1.3797930435    0.9057385647    1.4709637211
H       -3.3703777699   -2.3317157055    1.5936336544
H       -3.6481920965   -5.9048076742    1.3724828336
H       -4.1702763731   -4.3123377594    1.9699861042
H       -2.4549676964   -4.8136564955    2.1434115891
24   
Generated by ForceBalance from scan.xyz: Frame 10 of 24
C       -0.4785288925   -1.0424645927    0.1203316271
C       -4.6175929245   -0.1042032382    1.6847381478
C       -3.3632641281    1.2715997260    3.2336774440
C       -5.7962595753    0.1948695043    2.3671712524
C       -4.5302947271    1.5700684871    3.9340742556
C       -3.3779458477    0.4105232556    2.1175597950
C       -5.7287803795    1.0171957771    3.4889446340
C       -2.1171952503    0.1319084800    1.4256195441
C       -2.4945808389   -2.2828952801    0.8826656696
C       -1.7390049264   -1.0279491512    0.8182932138
C       -3.4488040979   -4.7700973807    1.4909471062
N        0.5477584206   -1.0138992849   -0.4298538744
N       -2.1445849332   -3.2629587230    0.1233269171
O       -2.8621089077   -4.4435506785    0.2213127277
F       -6.8700110173    1.3071057141    4.1564386697
H       -4.6700613479   -0.6997130461    0.7790233379
H       -2.4201954175    1.6977882983    3.5659686589
H       -6.7575907874   -0.1826971792    2.0327570429
H       -4.5246265694    2.2206956780    4.8029401427
H       -1.3977708425    0.9475132629    1.4068445294
H       -3.2975345820   -2.3374343467    1.6150931523
H       -3.6864167737   -5.8321680660    1.4171368156
H       -4.3726340707   -4.2111786595    1.6865776465
H       -2.7301837163   -4.6011288045    2.3011831927
24   
Generated by ForceBalance from scan.xyz: Frame 11 of 24
C       -0.4694485010   -1.0114543125    0.0891209634
C       -4.6041175433   -0.1492827738    1.7120930427
C       -3.3576805435    1.2880814252    3.2083863818
C       -5.7782276574    0.1330021195    2.4095111381
C       -4.5197998454    1.5705969815    3.9238188742
C       -3.3699146289    0.4048555688    2.1099177859
C       -5.7121886009    0.9793973678    3.5132905861
C       -2.1154838072    0.1452264839    1.3982622574
C       -2.4323945138   -2.2930464561    0.9215120187
C       -1.7166124101   -1.0177864075    0.8109989481
C       -3.5349423023   -4.7079626874    1.4589039254
N        0.5443463350   -0.9644012907   -0.4824955398
N       -2.0572323682   -3.2806945400    0.1829351660
O       -2.7051121409   -4.4893312996    0.3094671176
F       -6.8483045154    1.2538593105    4.1963499399
H       -4.6571449417   -0.7645589090    0.8197533878
H       -2.4202656870    1.7450221081    3.5148003916
H       -6.7353099380   -0.2756562211    2.1003327712
H       -4.5148799228    2.2386689261    4.7793306304
H       -1.4198495939    0.9797769835    1.3464227820
H       -3.2239053017   -2.3474358343    1.6649848436
H       -3.7896670383   -5.7670702990    1.4104648091
H       -4.4563243287   -4.1129801779    1.4240002413
H       -2.9866326009   -4.4976389234    2.3850918157
24   
Generated by ForceBalance from scan.xyz: Frame 12 of 24
C       -0.4611033479   -0.9975161025    0.0758700909
C       -4.5922385410   -0.2012601792    1.7446353750
C       -3.3599102890    1.3069107229    3.1811301044
C       -5.7617540863    0.0705739129    2.4537731323
C       -4.5169758500    1.5798261194    3.9084722226
C       -3.3665501268    0.3944808844    2.1067695109
C       -5.7000346540    0.9479070182    3.5334309886
C       -2.1171832592    0.1486303250    1.3811745447
C       -2.3743871629   -2.3093156484    0.9749556043
C       -1.6966491442   -1.0183132825    0.8173948829
C       -3.6041196853   -4.6717041514    1.4173049458
N        0.5417338675   -0.9373937847   -0.5135336071
N       -1.9771113508   -3.3066508412    0.2609841008
O       -2.5647205673   -4.5365164145    0.4395814971
F       -6.8319590317    1.2117703023    4.2276020117
H       -4.6435385945   -0.8416761378    0.8700999384
H       -2.4297242284    1.7954220633    3.4595385962
H       -6.7129679792   -0.3701626929    2.1717107368
H       -4.5153203515    2.2706437689    4.7457499946
H       -1.4442581053    0.9990854828    1.2977916803
H       -3.1557482725   -2.3623150692    1.7286302261
H       -3.8892696169   -5.7225749907    1.3632960034
H       -4.4702797052   -4.0434285504    1.1743994045
H       -3.2420584223   -4.4397247235    2.4265786521
24   
Generated by ForceBalance from scan.xyz: Frame 13 of 24
C       -0.0911450178   -1.1602546515    0.9301558234
C       -4.4852966848   -0.2236417363    1.4920341310
C       -3.5985176271    1.3829891085    3.0702873618
C       -5.7841922230    0.1082503839    1.8755568340
C       -4.8900264682    1.7164715167    3.4740294839
C       -3.3688341500    0.3912395906    2.0953037905
C       -5.9633410746    1.0649767824    2.8714352978
C       -1.9877459352    0.0847341179    1.7130535042
C       -2.1918862290   -2.3950389991    1.4309961041
C       -1.4693152183   -1.1220381130    1.3500621651
C       -3.6568593754   -4.6724771468    1.4868608702
N        1.0246083351   -1.1452759102    0.5962502006
N       -1.6527412647   -3.4462475221    0.9152908181
O       -2.2872699335   -4.6595755892    1.0628929946
F       -7.2222919992    1.3874705180    3.2504199217
H       -4.3400090333   -0.9286162358    0.6800055421
H       -2.7512931054    1.8860927375    3.5291095917
H       -6.6498643205   -0.3474280425    1.4048532204
H       -5.0733588238    2.4689885374    4.2345031095
H       -1.2950371870    0.9229752672    1.7373326477
H       -3.1366872799   -2.3895867615    1.9686447887
H       -3.9638643913   -5.7129782494    1.3775157779
H       -4.2728199694   -4.0331829481    0.8424071694
H       -3.7700918920   -4.3697566337    2.5354247412
24   
Generated by ForceBalance from scan.xyz: Frame 14 of 24
C       -0.0893388203   -1.1596995819    0.9227174152
C       -4.4856038720   -0.2685405632    1.5407507848
C       -3.5935516343    1.4116738463    3.0366797644
C       -5.7819524972    0.0587690535    1.9362576217
C       -4.8816806167    1.7420510121    3.4531139059
C       -3.3669032307    0.3856700133    2.0969278665
C       -5.9558416893    1.0512932812    2.8974763467
C       -1.9887823231    0.0852955747    1.7009080136
C       -2.1619529034   -2.4041947614    1.5074213494
C       -1.4595944221   -1.1257022668    1.3681022218
C       -3.6876234931   -4.6679173132    1.3996261265
N        1.0192587895   -1.1402110354    0.5660709453
N       -1.6250404363   -3.4682526809    1.0185125494
O       -2.2603373589   -4.6769460836    1.2509284954
F       -7.2118330169    1.3698942850    3.2884544339
H       -4.3455351917   -1.0026830767    0.7541348683
H       -2.7455125558    1.9447938129    3.4585460084
H       -6.6494621407   -0.4278531197    1.5012630414
H       -5.0619355593    2.5210417580    4.1872146145
H       -1.3075850638    0.9331979456    1.6856587200
H       -3.0971454176   -2.3956172414    2.0630618191
H       -3.9812840937   -5.7123210803    1.2868247992
H       -4.1511544987   -4.0617183151    0.6121386501
H       -4.0099118921   -4.3114361423    2.3861586735
24   
Generated by ForceBalance from scan.xyz: Frame 15 of 24
C       -0.0937379957   -1.1676528264    0.9180935459
C       -4.4860586203   -0.3083115274    1.5941946720
C       -3.5877576277    1.4416533056    3.0055927324
C       -5.7786703457    0.0186642792    2.0016041866
C       -4.8721021902    1.7716479187    3.4332665775
C       -3.3660379946    0.3816961956    2.1029101542
C       -5.9476041073    1.0462567174    2.9262265595
C       -1.9920538805    0.0828186506    1.6937072694
C       -2.1406439404   -2.4120097161    1.5878602910
C       -1.4545632241   -1.1324799817    1.3908973995
C       -3.6964861336   -4.6882459493    1.2932668941
N        1.0070148138   -1.1486477731    0.5379242376
N       -1.6140276438   -3.4871359018    1.1163064699
O       -2.2674928321   -4.6835055817    1.4286899455
F       -7.1997966108    1.3647263000    3.3282613503
H       -4.3515581784   -1.0712801590    0.8344913906
H       -2.7389997152    2.0014783377    3.3897372395
H       -6.6477819825   -0.4954952332    1.6031118495
H       -5.0489018187    2.5767129564    4.1395078633
H       -1.3213003579    0.9373423328    1.6370013447
H       -3.0594898808   -2.3988458614    2.1716913848
H       -3.9691685334   -5.7443383685    1.2600168247
H       -3.9898805582   -4.1977983132    0.3578168242
H       -4.2113052757   -4.2176530131    2.1405748987
24   
Generated by ForceBalance from scan.xyz: Frame 16 of 24
C       -0.1077623504   -1.1632592709    0.9107904588
C       -4.4871288808   -0.3213883695    1.6471508378
C       -3.5857847712    1.4795982546    2.9916898926
C       -5.7761217551    0.0024302083    2.0679485517
C       -4.8661295017    1.8069160471    3.4326707453
C       -3.3671677399    0.3961807385    2.1165194701
C       -5.9412590158    1.0543772243    2.9655735259
C       -1.9978140039    0.0996584280    1.6921604056
C       -2.1315471867   -2.3965847410    1.6677388659
C       -1.4565138975   -1.1199800590    1.4152920464
C       -3.6900851822   -4.6971987827    1.1807913071
N        0.9834047723   -1.1512354804    0.5036210371
N       -1.6270610987   -3.4840388987    1.2061209939
O       -2.3193270951   -4.6557162537    1.5962348663
F       -7.1897360353    1.3701485175    3.3798171234
H       -4.3565214989   -1.1038554643    0.9067486684
H       -2.7372269299    2.0599473320    3.3444884360
H       -6.6458493752   -0.5328403654    1.6998557293
H       -5.0405642540    2.6299355417    4.1184935990
H       -1.3370852686    0.9584131185    1.5943704857
H       -3.0237975589   -2.3756070323    2.2931449729
H       -4.0118104998   -5.7224940742    1.3727503220
H       -3.7700480285   -4.4777095302    0.1094804717
H       -4.3336570519   -4.0139009500    1.7500937458
24   
Generated by ForceBalance from scan.xyz: Frame 17 of 24
C       -0.1401617573   -1.1994686463    0.8988264706
C       -4.5053715646   -0.3380980011    1.6932625702
C       -3.5796009040    1.5019347628    2.9672744437
C       -5.7862455673   -0.0032967039    2.1294474653
C       -4.8513894933    1.8408911843    3.4235051034
C       -3.3774891997    0.3932248140    2.1201631713
C       -5.9344264147    1.0741377624    2.9994171786
C       -2.0165252687    0.0841957967    1.6796355322
C       -2.1486296394   -2.4130701286    1.7244044038
C       -1.4790865933   -1.1422821443    1.4268951464
C       -3.6347069837   -4.7858568222    1.0563399418
N        0.9432105406   -1.1996670877    0.4711075449
N       -1.6556070704   -3.5149004801    1.2876806848
O       -2.3916406456   -4.6478030573    1.7495824020
F       -7.1746142310    1.4012700360    3.4285180235
H       -4.3881760838   -1.1411426621    0.9730073703
H       -2.7249128276    2.0927012980    3.2863740697
H       -6.6623831984   -0.5497217678    1.7945044810
H       -5.0136026859    2.6833308451    4.0884088070
H       -1.3583144158    0.9399140007    1.5444272896
H       -3.0279437242   -2.3870353029    2.3695237776
H       -4.0564537078   -5.7306655990    1.4050999386
H       -3.4711561904   -4.8284561845   -0.0274330543
H       -4.3344180931   -3.9716758322    1.2907772275
24   
Generated by ForceBalance from scan.xyz: Frame 18 of 24
C       -0.1942436837   -1.2189262624    0.9033623483
C       -4.5435104676   -0.3008512059    1.7518933127
C       -3.5732695658    1.5585585593    2.9631427567
C       -5.8118535801    0.0602551413    2.2032856753
C       -4.8321257412    1.9238809866    3.4343600847
C       -3.3995823077    0.4271053714    2.1398857938
C       -5.9317221562    1.1601968125    3.0490844247
C       -2.0498255571    0.0933449495    1.6840441640
C       -2.2032958990   -2.4037330650    1.7664200204
C       -1.5265404720   -1.1420695156    1.4453009174
C       -3.5345887380   -4.9257818151    0.9409003708
N        0.8840920292   -1.2366852414    0.4633364272
N       -1.7177401656   -3.5176178146    1.3521477204
O       -2.4829448293   -4.6157508646    1.8571142959
F       -7.1598519655    1.5125763165    3.4925119167
H       -4.4496483639   -1.1233273099    1.0505816440
H       -2.7060198593    2.1466841837    3.2518026823
H       -6.7001973560   -0.4841261088    1.8986074931
H       -4.9720358749    2.7840985922    4.0813104638
H       -1.3847232744    0.9394918604    1.5242536812
H       -3.0818845191   -2.3721637358    2.4127046419
H       -4.0069629739   -5.8298037561    1.3308373075
H       -3.1353776145   -5.1145209362   -0.0630654733
H       -4.2762483378   -4.1155010184    0.8921047215
24   
Generated by ForceBalance from scan.xyz: Frame 19 of 24
C       -0.2568334269   -1.2456829438    0.9016075656
C       -4.5840313497   -0.2443157185    1.7938461795
C       -3.5624190401    1.6102964856    2.9684039561
C       -5.8391473338    0.1465943906    2.2572784777
C       -4.8073356403    2.0061174314    3.4518115696
C       -3.4208476347    0.4656933763    2.1570703989
C       -5.9262779885    1.2590055198    3.0905734414
C       -2.0832349671    0.1021869574    1.6885259439
C       -2.2786888998   -2.3928615363    1.7829829800
C       -1.5834803459   -1.1438460845    1.4534603981
C       -3.3982701657   -5.1161519867    0.8562480214
N        0.8171456670   -1.2856529367    0.4523523690
N       -1.8040291484   -3.5174807842    1.3835359865
O       -2.5833944669   -4.5905290770    1.9064879917
F       -7.1414449086    1.6404453926    3.5458939113
H       -4.5160854250   -1.0776402050    1.1025856088
H       -2.6802755994    2.1850875587    3.2381749564
H       -6.7416136849   -0.3847582730    1.9716832542
H       -4.9218458971    2.8767839014    4.0897360729
H       -1.4042181975    0.9347243672    1.5163667796
H       -3.1595492133   -2.3503289402    2.4249713193
H       -3.8764369530   -6.0060745621    1.2707514870
H       -2.7873929148   -5.3865035364   -0.0130606334
H       -4.1647752289   -4.3897174335    0.5521175638
24   
Generated by ForceBalance from scan.xyz: Frame 20 of 24
C       -0.3293933622   -1.2791492191    0.8793404801
C       -4.6252621121   -0.1741220194    1.8119533570
C       -3.5452951052    1.6491606415    2.9832318185
C       -5.8658095412    0.2482344542    2.2870238291
C       -4.7754580761    2.0761354702    3.4778721980
C       -3.4406048866    0.5038044869    2.1672492772
C       -5.9167467910    1.3600305315    3.1239870425
C       -2.1166654118    0.1079663799    1.6861596337
C       -2.3734867524   -2.3829878608    1.7607067609
C       -1.6502337384   -1.1490923877    1.4397170311
C       -3.2622630246   -5.3053221595    0.7825346019
N        0.7402479726   -1.3441771453    0.4226225331
N       -1.9187715551   -3.5162029858    1.3594099921
O       -2.7080933389   -4.5711589445    1.8786773114
F       -7.1178240825    1.7719970539    3.5907602309
H       -4.5855258619   -1.0071988034    1.1182641708
H       -2.6461166578    2.1996572409    3.2474502438
H       -6.7841473023   -0.2587282987    2.0077327283
H       -4.8616197071    2.9475673578    4.1192139730
H       -1.4171988987    0.9235775765    1.5152571431
H       -3.2560781150   -2.3276379099    2.3985959576
H       -3.7372349375   -6.1831792612    1.2252486151
H       -2.4750118258   -5.6116343609    0.0847888983
H       -4.0107997717   -4.7039755822    0.2503597401
24   
Generated by ForceBalance from scan.xyz: Frame 21 of 24
C       -0.4009658215   -1.3066128175    0.8562246899
C       -4.6630455351   -0.1030190988    1.8236499520
C       -3.5296967665    1.6764334345    3.0120649851
C       -5.8898557781    0.3468010260    2.3092053838
C       -4.7461328171    2.1303486590    3.5167134882
C       -3.4591303256    0.5386897239    2.1818170808
C       -5.9076680770    1.4495199927    3.1593228578
C       -2.1481711869    0.1142199820    1.6896288811
C       -2.4695891639   -2.3706863318    1.7247194229
C       -1.7167535998   -1.1514717950    1.4227024189
C       -3.1260066783   -5.4619014956    0.7395438655
N        0.6651257464   -1.3943647365    0.3949555562
N       -2.0398861948   -3.5084249729    1.3065431989
O       -2.8417367627   -4.5493315416    1.8064489161
F       -7.0956178682    1.8879664209    3.6363261278
H       -4.6487876335   -0.9287798256    1.1203056563
H       -2.6149865508    2.1993135193    3.2791361984
H       -6.8224929918   -0.1322850794    2.0280610733
H       -4.8062595377    2.9960466121    4.1687181373
H       -1.4270517617    0.9128310553    1.5292691732
H       -3.3520973081   -2.3049852395    2.3613296040
H       -3.6234551831   -6.3140454107    1.2067693733
H       -2.1999625601   -5.7826875611    0.2511779906
H       -3.7913472334   -4.9984550789    0.0012428780
24   
Generated by ForceBalance from scan.xyz: Frame 22 of 24
C       -0.4728014246   -1.3317796395    0.8281894852
C       -4.7002353168   -0.0382895491    1.8317472597
C       -3.5182870330    1.6906813294    3.0470208778
C       -5.9138964638    0.4350020205    2.3280402590
C       -4.7214519595    2.1677817880    3.5621749255
C       -3.4791495096    0.5658285028    2.1973402076
C       -5.9009763798    1.5234832101    3.1963346879
C       -2.1808107237    0.1165952512    1.6935519718
C       -2.5641952110   -2.3602752823    1.6797728801
C       -1.7834819357   -1.1547929786    1.4007853681
C       -2.9981385546   -5.5835869057    0.7306550519
N        0.5897022173   -1.4395059635    0.3628462229
N       -2.1611204709   -3.4987744249    1.2361357493
O       -2.9815487446   -4.5285827654    1.7013919143
F       -7.0762876727    1.9846759995    3.6838663734
H       -4.7091859753   -0.8525244462    1.1150063614
H       -2.5896602560    2.1849344043    3.3205612958
H       -6.8592592943   -0.0150982665    2.0414881671
H       -4.7575662471    3.0237053339    4.2287220148
H       -1.4389428451    0.8987146238    1.5477704183
H       -3.4459012393   -2.2866362387    2.3164685286
H       -3.5380123703   -6.4064573629    1.2028834837
H       -1.9776486084   -5.8902808659    0.4814420331
H       -3.5212680617   -5.2632876089   -0.1772638755
24   
Generated by ForceBalance from scan.xyz: Frame 23 of 24
C       -0.5270702088   -1.3514817353    0.7868131302
C       -4.7225934578    0.0161422639    1.8270482791
C       -3.5003124091    1.6882096760    3.0802986974
C       -5.9246554101    0.5070467808    2.3344542494
C       -4.6918053526    2.1825565104    3.6064443440
C       -3.4872509290    0.5823450960    2.2052521023
C       -5.8864277589    1.5752361968    3.2268594640
C       -2.1999441554    0.1144214450    1.6900048825
C       -2.6400080132   -2.3523894655    1.6133561394
C       -1.8336319342   -1.1584172643    1.3641961229
C       -2.8868590716   -5.6665704743    0.7409056338
N        0.5326604505   -1.4740454892    0.3188011808
N       -2.2654747627   -3.4870897258    1.1356213722
O       -3.1134799474   -4.5065143700    1.5539751297
F       -7.0506922385    2.0533102564    3.7251168424
H       -4.7511472084   -0.7816740172    1.0925597208
H       -2.5602629813    2.1539929171    3.3645828954
H       -6.8803328687    0.0859221044    2.0382176945
H       -4.7074008285    3.0240207922    4.2919444526
H       -1.4390236716    0.8815526569    1.5646778721
H       -3.5210962220   -2.2745109098    2.2503275579
H       -3.5153863440   -6.4486876560    1.1705873986
H       -1.8338665448   -5.9608631345    0.7787921616
H       -3.1817117123   -5.4733661206   -0.2956989217
24   
Generated by ForceBalance from scan.xyz: Frame 24 of 24
C       -0.5822807639   -1.3572024085    0.7264973612
C       -4.7466707044    0.0605959736    1.8161414067
C       -3.4909108653    1.6731417102    3.1137198392
C       -5.9386441141    0.5599076790    2.3388677126
C       -4.6724694155    2.1750436311    3.6550017631
C       -3.5002111563    0.5921735269    2.2081294387
C       -5.8790689441    1.6017932780    3.2607214368
C       -2.2228368498    0.1143983411    1.6773846513
C       -2.7093636177   -2.3411694473    1.5348113233
C       -1.8832362771   -1.1556039847    1.3137443983
C       -2.8124779472   -5.7093249648    0.7860534279
N        0.4736096684   -1.4880566198    0.2520946998
N       -2.3622117632   -3.4662795439    1.0155909473
O       -3.2378038181   -4.4771556723    1.3865134432
F       -7.0334413382    2.0880578968    3.7741198021
H       -4.7913266655   -0.7156719767    1.0596931247
H       -2.5418393137    2.1128066902    3.4094498130
H       -6.9024644320    0.1655697888    2.0323212815
H       -4.6712560497    2.9972283649    4.3636707013
H       -1.4468264606    0.8694960311    1.5731761002
H       -3.5860116981   -2.2652837668    2.1780991361
H       -3.5344088972   -6.4568703253    1.1195648296
H       -1.8071690148   -5.9748990041    1.1264709017
H       -2.8265496315   -5.6295963163   -0.3052788193
