20   
Generated by ForceBalance from scan.xyz: Frame 1 of 24
C       -2.3740416103   -0.6547105799    0.2633484584
C        1.9457980850    1.7613777044   -1.1043629821
C        0.8814465675   -1.7077547861    0.7908923970
C       -3.4792636901   -0.1929837186    1.2843646447
N       -1.3549254022    0.2502739288    0.1011018324
O       -2.4239691587   -1.7444741612   -0.2617576041
O       -0.3013338682    0.1638796927   -2.4238118872
O        0.8614635158    1.2055228863   -0.3159810061
O        0.6325557275   -1.3480950342   -0.5864311679
P       -0.0379567708    0.0415666893   -0.9819156471
Cl      -4.0191489148    1.4914424582    0.9115887858
Cl      -4.8636970390   -1.2921969141    1.2315052918
Cl      -2.7203588098   -0.2263841167    2.9297883335
H        2.3236396707    2.6108663892   -0.5358787409
H        1.5746557955    2.0851682094   -2.0785840833
H        2.7359950058    1.0168229772   -1.2329876224
H        1.5334484491   -2.5804064425    0.7588654672
H       -0.0586269959   -1.9677218193    1.2822935200
H        1.3760383157   -0.8897763321    1.3217180373
H       -1.4293078919    1.1598803646    0.5466145887
20   
Generated by ForceBalance from scan.xyz: Frame 2 of 24
C       -2.3565595285   -0.6905291528    0.3396577768
C        1.9544693064    1.7288453101   -1.0163263287
C        0.8229266188   -1.7190221022    0.7679972630
C       -3.4297569856   -0.1975061975    1.3819069415
N       -1.4392202291    0.2696244288   -0.0041618501
O       -2.3507637491   -1.8387265011   -0.0449824210
O       -0.2563719423    0.2005824516   -2.4630439852
O        0.8280729128    1.1781364631   -0.2845888082
O        0.5587462307   -1.3590748590   -0.6081143543
P       -0.0651744236    0.0463800568   -1.0125985519
Cl      -4.0881583264    1.4204656671    0.9156797209
Cl      -4.7515577228   -1.3671464752    1.5023652325
Cl      -2.5738851827   -0.0575136287    2.9725358919
H        2.3203356324    2.5630085315   -0.4180357327
H        1.6318079857    2.0736310925   -2.0005414404
H        2.7377628645    0.9735132953   -1.1226640447
H        1.5838247607   -2.4987723705    0.7340286770
H       -0.0896779434   -2.1114817157    1.2200133877
H        1.1948750777   -0.8595024440    1.3314290703
H       -1.5663494523    1.2091633753    0.3603444646
20   
Generated by ForceBalance from scan.xyz: Frame 3 of 24
C       -2.2958897082   -0.7554858307    0.6031581671
C        1.9004703813    1.6626168400   -1.0001316392
C        0.9083074386   -1.8005343047    0.6617580269
C       -3.3767454679   -0.1745731216    1.5939027515
N       -1.5094583898    0.2096056285    0.0270310544
O       -2.1871554448   -1.9517450767    0.4490828066
O       -0.3777348613    0.2299945220   -2.4343214218
O        0.7830538145    1.1070717068   -0.2585645607
O        0.4762738153   -1.4108436205   -0.6649759099
P       -0.1433028832    0.0103342288   -0.9979496996
Cl      -4.2336754661    1.2392301277    0.8595071590
Cl      -4.5534655517   -1.4260060180    2.0202599460
Cl      -2.4841132098    0.3701764621    3.0708538510
H        2.2954450778    2.4704244062   -0.3843433136
H        1.5599228305    2.0450303192   -1.9642613881
H        2.6683310585    0.8989086254   -1.1513586834
H        1.7468727300   -2.4824283155    0.5183512451
H        0.0857229380   -2.3137507284    1.1602832958
H        1.2312491913   -0.9301136639    1.2380800779
H       -1.7483860598    1.1785702824    0.2195401541
20   
Generated by ForceBalance from scan.xyz: Frame 4 of 24
C       -2.2376518532   -0.6686465885    0.9188276414
C        1.9417546594    1.5865580499   -0.8671365737
C        1.0162893816   -1.9271898722    0.3098787009
C       -3.5813186337   -0.1302362859    1.5484851670
N       -1.5581060230    0.2867083209    0.2058018619
O       -1.9018847709   -1.8206202073    1.0854287697
O       -0.5846837091    0.5784681336   -2.2496226942
O        0.8305651406    1.0426601236   -0.1088011090
O        0.2702145829   -1.3664097020   -0.8031956035
P       -0.2430646542    0.1273344063   -0.8886639227
Cl      -4.6988853545    0.3019166985    0.2000228152
Cl      -4.3169892094   -1.3699235114    2.5764119817
Cl      -3.2316774301    1.3486042189    2.5367630722
H        2.4373382176    2.2950565508   -0.2036562979
H        1.5746928802    2.0910559862   -1.7630160047
H        2.6362503908    0.7887725510   -1.1460939808
H        1.7350094125   -2.6189958338   -0.1301841673
H        0.3176902001   -2.4513594343    0.9597889681
H        1.5386454753   -1.1402874909    0.8583667402
H       -1.9999963722    1.2009745041    0.1454162415
20   
Generated by ForceBalance from scan.xyz: Frame 5 of 24
C       -1.2363123780    0.5733171776    0.9103348427
C        2.2195792309    0.1141117336   -1.7952848583
C        1.0507098742   -2.2166414942    1.6089995680
C       -2.4615696610    1.5574081867    0.8021993749
N       -0.6570226706    0.2740950166   -0.3008839514
O       -0.8749186983    0.1548832974    1.9889230577
O       -0.3476691937   -1.6367390052   -2.0115302030
O        1.7461782646   -0.7439711244   -0.7318275864
O        0.1064315073   -2.1567049545    0.5033031234
P        0.2001332121   -1.1746022169   -0.7223937099
Cl      -3.7862055010    0.6866756648   -0.0608767232
Cl      -3.0028773135    2.0499336415    2.4144681349
Cl      -1.9834253638    3.0213842578   -0.1520297316
H        3.2975969296    0.1966335159   -1.6588811785
H        1.7608353668    1.1039892402   -1.7092091762
H        1.9915913004   -0.3294012417   -2.7669075576
H        0.7126610813   -3.0482393079    2.2259769120
H        1.0119071663   -1.2867961707    2.1747469692
H        2.0527444710   -2.4068407946    1.2226437361
H       -1.1486886521    0.6348528637   -1.1158952465
20   
Generated by ForceBalance from scan.xyz: Frame 6 of 24
C       -1.1675189182    0.6221295066    0.8470214235
C        2.2327713966    0.1740026952   -1.6965393294
C        1.0133059875   -2.2885643851    1.5658659962
C       -2.4333499005    1.5570142197    0.8212836618
N       -0.7430993211    0.2215969064   -0.3966577386
O       -0.6462654018    0.3126930600    1.8971956118
O       -0.2591244882   -1.6700559574   -2.0697927388
O        1.7240697523   -0.7005983116   -0.6621732985
O        0.0595614484   -2.1626260747    0.4744928225
P        0.1983595378   -1.1854061168   -0.7539614358
Cl      -3.8276844951    0.5708190547    0.2350823049
Cl      -2.7698758861    2.1869055675    2.4418179919
Cl      -2.1491910433    2.9335557721   -0.3201415491
H        3.2919661794    0.3110944692   -1.4803220153
H        1.7187150049    1.1389696656   -1.6554229539
H        2.1002069805   -0.2868812506   -2.6776646083
H        0.6224720640   -3.0890326897    2.1930177841
H        1.0570426359   -1.3539857956    2.1232471143
H        1.9923738156   -2.5577724098    1.1674598303
H       -1.3320091700    0.4825259834   -1.1840614463
20   
Generated by ForceBalance from scan.xyz: Frame 7 of 24
C       -1.2211694278    0.5970170257    0.8627079813
C        2.0368348862    0.2468774327   -1.5790410271
C        0.9038055658   -2.4025044113    1.5397200433
C       -2.4204818875    1.6148820107    0.9059110606
N       -0.9698085800    0.0854262814   -0.3845833695
O       -0.5856463720    0.3383361890    1.8630970176
O       -0.3457149219   -1.7381960794   -2.0800244502
O        1.5477469016   -0.6899931547   -0.5903124061
O       -0.0647818536   -2.2607234412    0.4638483689
P        0.0556835388   -1.2543182234   -0.7460136470
Cl      -3.9151632688    0.7758043436    0.3313353254
Cl      -2.6617109960    2.2169736004    2.5530947814
Cl      -2.0414369692    2.9923906976   -0.2037719866
H        3.0734315463    0.4511157724   -1.3123824819
H        1.4543546490    1.1720124194   -1.5376174855
H        1.9792370390   -0.1943895884   -2.5763574182
H        0.5079938119   -3.1936683925    2.1757084891
H        0.9782010574   -1.4669207665    2.0922262346
H        1.8709413257   -2.6931405643    1.1269453724
H       -1.6308805660    0.2939220882   -1.1282420624
20   
Generated by ForceBalance from scan.xyz: Frame 8 of 24
C       -1.0268149079    0.5485174192    0.7832272311
C        2.0771610206    0.3878674102   -1.5401798293
C        1.2064055641   -2.3868783119    1.5382161963
C       -2.1630035790    1.6365841045    0.7905155806
N       -0.9007421125   -0.1241461307   -0.4018170927
O       -0.3081605743    0.3975185138    1.7499745169
O       -0.0741903984   -1.8664647582   -2.0953129664
O        1.6834147714   -0.6192368346   -0.5778608818
O        0.2448454882   -2.3604263095    0.4470781783
P        0.2659314242   -1.3413608124   -0.7602963195
Cl      -3.6973377382    0.9570551709    0.1189929363
Cl      -2.4423829307    2.2264590346    2.4367820314
Cl      -1.5949923639    2.9907798828   -0.2674987883
H        3.0854563157    0.6920006935   -1.2609443661
H        1.4014939731    1.2462033999   -1.4807721121
H        2.0709810852   -0.0317368879   -2.5485030703
H        0.8510634891   -3.1661720328    2.2118032289
H        1.2231814487   -1.4212948715    2.0417177876
H        2.1932544902   -2.6419415518    1.1485513148
H       -1.6073956907    0.0049140064   -1.1203640245
20   
Generated by ForceBalance from scan.xyz: Frame 9 of 24
C       -0.9840114843    0.5581665385    0.7476058718
C        1.9879377354    0.4863319778   -1.4364593116
C        1.1953644712   -2.4370194308    1.5167047332
C       -2.0847768460    1.6812408541    0.7112384259
N       -0.9690304253   -0.2507010804   -0.3554399781
O       -0.2033854863    0.4875039726    1.6750964371
O       -0.0569135843   -1.8616799133   -2.1352261469
O        1.6403339586   -0.6019315401   -0.5472431028
O        0.3001342981   -2.4679413067    0.3703637855
P        0.2631860063   -1.3821757635   -0.7788996163
Cl      -3.6821543906    0.9909923397    0.2262696187
Cl      -2.2259472623    2.4605219435    2.2948881825
Cl      -1.5528229632    2.8883356977   -0.5300279590
H        2.9883851875    0.8040457157   -1.1447400920
H        1.2849967996    1.3144507755   -1.3081524738
H        1.9849187648    0.1418914041   -2.4729640537
H        0.8818006240   -3.2694183073    2.1461863975
H        1.0937826542   -1.4906066920    2.0469487075
H        2.2229399758   -2.5817824562    1.1792162223
H       -1.6930725004   -0.1383058013   -1.0593807251
20   
Generated by ForceBalance from scan.xyz: Frame 10 of 24
C       -0.7632517519    0.5710241902    0.6882910728
C        2.0070104334    0.6001344180   -1.4825814317
C        0.9752146364   -2.4189149521    1.4971851558
C       -1.9438038603    1.6131441352    0.7014457780
N       -0.8508828386   -0.3600493479   -0.3134410782
O        0.1455872292    0.6609665263    1.4872797668
O        0.0166537082   -1.8004348830   -2.2746708641
O        1.7494835147   -0.5822723183   -0.6875110183
O        0.5567359772   -2.5940858108    0.1181383313
P        0.3978242035   -1.3998348497   -0.9097861179
Cl      -3.5371510818    0.7810394387    0.5120556634
Cl      -1.9320000382    2.5402537247    2.2103384775
Cl      -1.6725660926    2.7149219077   -0.7084788843
H        3.0204299347    0.9125826331   -1.2336588993
H        1.3019738720    1.3928793261   -1.2184129077
H        1.9326796655    0.3614678915   -2.5458024948
H        1.2266921730   -3.4171620227    1.8543145474
H        0.1519879054   -2.0033919687    2.0810522654
H        1.8415386271   -1.7592679710    1.5519899592
H       -1.6726418231   -0.3431515727   -0.9116827782
20   
Generated by ForceBalance from scan.xyz: Frame 11 of 24
C       -0.7182951177    0.6107565615    0.6722784467
C        2.0275515817    0.6276324764   -1.4225467244
C        0.9247245465   -2.4755109297    1.4520311386
C       -1.9447528387    1.5993834218    0.6709295957
N       -0.8434158866   -0.4370654404   -0.2059161007
O        0.2429557654    0.8287808510    1.3789207005
O        0.0211240579   -1.7254350395   -2.2933150981
O        1.7597487759   -0.5761614034   -0.6613414693
O        0.6087977176   -2.6429494223    0.0469278291
P        0.4170925964   -1.3940769224   -0.9143863858
Cl      -3.5095098916    0.6939907007    0.6760005824
Cl      -1.8743066163    2.6711128626    2.0792835865
Cl      -1.8162582331    2.5633171846   -0.8547017291
H        3.0534774140    0.9070736677   -1.1861999723
H        1.3493365682    1.4264960517   -1.1133675902
H        1.9243796354    0.4263064835   -2.4909445250
H        1.0980024227   -3.4798166271    1.8371745890
H        0.0801697810   -2.0151622146    1.9706154544
H        1.8169601758   -1.8588296919    1.5701629716
H       -1.7054766527   -0.4883110469   -0.7434888483
20   
Generated by ForceBalance from scan.xyz: Frame 12 of 24
C       -0.6834019377    0.8127486454    0.6414697511
C        2.1946131681    0.6698983620   -1.3426572643
C        0.8924006161   -2.5007506881    1.3649775850
C       -2.0289359458    1.6249364795    0.7746496106
N       -0.8026972775   -0.3251531146   -0.1177618007
O        0.3311407735    1.2184609359    1.1669828883
O        0.0292292080   -1.4788860776   -2.3155432309
O        1.7996663116   -0.5145388476   -0.6013581134
O        0.5531523218   -2.5741915338   -0.0411650916
P        0.4279400000   -1.2514626626   -0.9166987729
Cl      -3.3925289127    0.5219030335    1.2188243746
Cl      -1.8658459280    2.8909729677    2.0022317905
Cl      -2.3576968092    2.3638912917   -0.8417521223
H        3.2789137588    0.7293991720   -1.2539149164
H        1.7338382909    1.5475254940   -0.8865113471
H        1.9082446265    0.5719495196   -2.3918793732
H        0.8821347940   -3.5280503804    1.7277117600
H        0.1465921416   -1.9078432616    1.9019529871
H        1.8831717598   -2.0601217699    1.4899658322
H       -1.7187734631   -0.4957282510   -0.5268044349
20   
Generated by ForceBalance from scan.xyz: Frame 13 of 24
C       -0.7757633906    1.0018206876    0.3397673376
C        2.4954432228    0.5529940238   -1.2360183090
C        0.5926057269   -2.5392011811    1.2323433811
C       -2.1698447528    1.4384257439    0.9389194284
N       -0.8137980245   -0.2165747891   -0.2861171984
O        0.2012373505    1.7001358544    0.5052219721
O        0.2765071059   -1.2883054999   -2.4633114683
O        1.8044855741   -0.4776848393   -0.4750765259
O        0.3787206228   -2.5066377029   -0.1993111727
P        0.4641639542   -1.1364360931   -1.0114816921
Cl      -2.4923610684    0.3623172841    2.3583907084
Cl      -2.1148279770    3.1293459439    1.4584736993
Cl      -3.4881092117    1.2228897452   -0.2822508513
H        3.5336889095    0.5145149817   -0.9075997596
H        2.0533753664    1.5199209916   -0.9961093860
H        2.4263099202    0.3368927793   -2.3036585028
H        0.4369009722   -3.5746178082    1.5341103966
H       -0.1277177262   -1.8901864455    1.7389185806
H        1.6117211094   -2.2244884271    1.4657128882
H       -1.7382725719   -0.5957439264   -0.4778253411
20   
Generated by ForceBalance from scan.xyz: Frame 14 of 24
C       -0.8002523051    1.1810293203    0.5678256168
C        2.6006672328    0.7418774567   -0.8794544648
C        0.6155328072   -2.5940022697    1.1184506051
C       -2.1101071466    1.5051875186    1.3841536842
N       -0.8104786612   -0.0594600264   -0.0113815230
O        0.1142741856    1.9765675950    0.5386906235
O        0.3417812000   -0.7688967422   -2.3338162842
O        1.7973968408   -0.2696845221   -0.2059010668
O        0.3470519670   -2.3216303116   -0.2784023216
P        0.4726916045   -0.8438875738   -0.8701985506
Cl      -2.0856270059    0.4583839761    2.8618603586
Cl      -2.1407150618    3.2118822362    1.8496847302
Cl      -3.5817960784    1.1160151633    0.4052102867
H        3.6081593114    0.6303859960   -0.4793147627
H        2.1932535007    1.7236920786   -0.6401989643
H        2.5955151973    0.5652901393   -1.9562855794
H        0.4051936124   -3.6535601526    1.2618039665
H       -0.0368026093   -1.9922767381    1.7582786640
H        1.6616675864   -2.3798432159    1.3454310567
H       -1.6982586255   -0.5547710531   -0.0286988457
20   
Generated by ForceBalance from scan.xyz: Frame 15 of 24
C       -0.8084782081    1.2483549754    0.5115290264
C        2.6358626787    0.6657084972   -0.8639266548
C        0.6278251497   -2.6913588148    1.0067442509
C       -2.0412644787    1.6304145621    1.4142947383
N       -0.8033527055   -0.0594688160    0.1065954675
O        0.0610554157    2.0612244901    0.2791224892
O        0.2707228732   -0.6340916056   -2.3057003746
O        1.7831081039   -0.3024597505   -0.1868896104
O        0.2717790894   -2.3134270838   -0.3454112378
P        0.4272323157   -0.8064547887   -0.8531003125
Cl      -1.8153819847    0.7914643526    3.0019671820
Cl      -2.1110172200    3.3816512509    1.6564167430
Cl      -3.5818911662    1.0600096308    0.6537936485
H        3.6288886456    0.5300524969   -0.4357529438
H        2.2558231352    1.6665492231   -0.6611633854
H        2.6497655237    0.4655785555   -1.9364170892
H        0.3685646789   -3.7456541965    1.0999817193
H        0.0621820494   -2.1000388663    1.7331870275
H        1.6982251550   -2.5468726230    1.1639746494
H       -1.6596736581   -0.5938875259    0.2251838004
20   
Generated by ForceBalance from scan.xyz: Frame 16 of 24
C       -0.8111825301    1.3195915290    0.5687421196
C        2.6443079785    0.5869214980   -0.8182277652
C        0.6499340907   -2.7772553969    0.9964071963
C       -2.0503777956    1.7836512248    1.4197309471
N       -0.7597469385   -0.0322499885    0.3493948982
O        0.0256027369    2.1147308836    0.1959113110
O        0.1371661974   -0.5118746690   -2.1580116460
O        1.7916570960   -0.3712263334   -0.1263247207
O        0.1749081806   -2.2968999600   -0.2847439682
P        0.3710776876   -0.7743324801   -0.7298426859
Cl      -1.9207908945    1.0231074939    3.0572365340
Cl      -2.0727832768    3.5458712996    1.5718261167
Cl      -3.5695213416    1.2168987418    0.6173699352
H        3.6427128020    0.4371295925   -0.4076960375
H        2.2830436772    1.5943263365   -0.6123360860
H        2.6358201434    0.3878508946   -1.8909782371
H        0.3307041019   -3.8171043312    1.0622932148
H        0.2101857335   -2.1974422806    1.8136368225
H        1.7383293737   -2.7091697854    1.0393250861
H       -1.5848173380   -0.5805778247    0.5763796307
20   
Generated by ForceBalance from scan.xyz: Frame 17 of 24
C       -0.7796269066    1.3475841932    0.6170816078
C        2.6884362972    0.5602389279   -0.8197184780
C        0.7479711045   -2.8772823438    0.8650163043
C       -2.0564582828    1.8032378118    1.4121460891
N       -0.6215677640   -0.0138990297    0.5317893934
O       -0.0077990477    2.1571412663    0.1479913438
O        0.0582851794   -0.3656002400   -2.0636885022
O        1.8744677930   -0.4591555109   -0.1692730964
O        0.1453927884   -2.2718169596   -0.3048480163
P        0.3860812843   -0.7366376572   -0.6792393097
Cl      -2.0280181306    1.0465426265    3.0578893902
Cl      -2.0973877160    3.5655041209    1.5636417436
Cl      -3.5121084047    1.2229634648    0.5132870583
H        3.6953917479    0.4203993759   -0.4272303048
H        2.3038100168    1.5480242433   -0.5645230285
H        2.6728008949    0.4134184729   -1.9008720214
H        0.3664914005   -3.8974215039    0.9018931942
H        0.4608514332   -2.3366902498    1.7720477861
H        1.8345182475   -2.8793476422    0.7653164947
H       -1.3947012825   -0.5927610880    0.8495567052
20   
Generated by ForceBalance from scan.xyz: Frame 18 of 24
C       -1.6714072479    1.4291442969    0.1352669071
C        2.0577937827    0.2793188879    0.6457079879
C        0.5306288606   -3.0412273158   -0.9123539810
C       -2.8701656434    1.6368564084    1.1333969555
N       -0.9758671593    0.2555759013    0.3430432978
O       -1.4006419293    2.2513215746   -0.7073396562
O       -0.4499784440   -0.4277237042   -2.2590284502
O        1.4701404963    0.1552485036   -0.6668550386
O        0.0527202376   -1.9108441873   -0.1390797438
P        0.0103717951   -0.4666662576   -0.8645854114
Cl      -2.2393746894    1.5515548752    2.8310996329
Cl      -3.6400978686    3.2039131216    0.8574644670
Cl      -4.0619987789    0.3033828733    0.8730134124
H        3.0505002537    0.7016014354    0.4913398073
H        2.1370819654   -0.7008644718    1.1246004462
H        1.4592364338    0.9516676040    1.2659899735
H        0.4060511702   -3.9152127892   -0.2735956111
H        1.5869160169   -2.9088567214   -1.1626856695
H       -0.0598250474   -3.1465211666   -1.8246070745
H       -1.3397190037   -0.3934772896    1.0354735666
20   
Generated by ForceBalance from scan.xyz: Frame 19 of 24
C       -2.2087377806    0.4696518478   -0.4018765404
C        1.8049070848    1.2540651445    0.0066626612
C        1.8104011380   -2.6070194312   -0.3862410958
C       -3.3230774213    0.4069646567    0.7092435980
N       -0.9762696566    0.0150979014    0.0313698189
O       -2.4449800521    0.8950361769   -1.5056895065
O       -0.1949166858   -1.1565881852   -2.3194439374
O        1.3400903854    0.5310587587   -1.1523441221
O        0.8229887442   -1.6475893298    0.0686228637
P        0.2263956157   -0.6129554877   -1.0225809310
Cl      -3.6077334985   -1.3305780743    1.1153261960
Cl      -2.7375397846    1.2780293377    2.1892113822
Cl      -4.8172626040    1.1517064427    0.1289066970
H        2.5737905976    1.9375645936   -0.3529857451
H        2.2308141560    0.5669200891    0.7438748512
H        0.9829918978    1.8205475143    0.4529570966
H        2.0439767331   -3.2300399184    0.4767190384
H        2.7115646606   -2.0908756903   -0.7297433752
H        1.3960400474   -3.2144885917   -1.1934372139
H       -0.9388280290   -0.3732896739    0.9703667189
20   
Generated by ForceBalance from scan.xyz: Frame 20 of 24
C       -2.2687020333    0.3958256925   -0.4431661632
C        1.8640044238    1.2022847993    0.0992188301
C        1.7458407502   -2.6027840678   -0.4119050214
C       -3.2991832488    0.3795065829    0.7505444499
N       -0.9706045522    0.1224176428   -0.0416609199
O       -2.6207649625    0.6427370030   -1.5686745925
O       -0.1563692264   -1.0261625914   -2.3873899943
O        1.4209271941    0.5321950181   -1.0981643773
O        0.7436620321   -1.6482115043    0.0206384692
P        0.2390014638   -0.5518662047   -1.0567608174
Cl      -3.3765036287   -1.3079379613    1.3944267878
Cl      -2.7168193406    1.4914267629    2.0608319624
Cl      -4.8958139659    0.8954368750    0.1960957450
H        2.6943925071    1.8411291869   -0.2009068424
H        2.2034952241    0.4768173489    0.8450499851
H        1.0568003575    1.8155306517    0.5101125043
H        1.9090101022   -3.2710527922    0.4332007020
H        2.6763636425   -2.0877048987   -0.6677921528
H        1.3785702583   -3.1636416671   -1.2738713823
H       -0.8586521095   -0.1290746842    0.9375109445
20   
Generated by ForceBalance from scan.xyz: Frame 21 of 24
C       -2.6284084533   -0.6245866870    0.1606396848
C        1.6051009041    1.6998111461   -1.1863332296
C        1.4278576771   -1.6079572904    0.8390954739
C       -3.5879972655    0.0180369345    1.2340927556
N       -1.2925140869   -0.3260741524    0.3773329302
O       -3.0601829492   -1.3081498173   -0.7328493214
O       -0.5575883173   -0.3189097467   -2.2572744401
O        0.5696368309    1.1144954939   -0.3558569484
O        0.9476961147   -1.4198402433   -0.5084502429
P       -0.1044968521   -0.2641778692   -0.8622706430
Cl      -3.5285243325    1.8112610241    1.0204708271
Cl      -5.2403050549   -0.5700926376    1.0167312920
Cl      -3.0036095622   -0.4038304842    2.9001079015
H        1.8760325271    2.6412214319   -0.7092200919
H        1.2181401276    1.8799453465   -2.1913256348
H        2.4752114366    1.0384650095   -1.2313508621
H        2.1552085584   -2.4180426779    0.7906499228
H        0.6018422892   -1.8911823354    1.4976155514
H        1.9095158578   -0.6973099793    1.2084618877
H       -1.1048897195    0.3128821508    1.1461972021
20   
Generated by ForceBalance from scan.xyz: Frame 22 of 24
C       -2.5325351702   -0.6815744143    0.2756815898
C        1.6690043874    1.7269494488   -1.1887271893
C        1.3875645792   -1.6800510843    0.7967448459
C       -3.5692213512   -0.0424220034    1.2738831777
N       -1.2478846482   -0.1927444883    0.4284249272
O       -2.8651424889   -1.5239071550   -0.5215593754
O       -0.5631736112   -0.1776064488   -2.2238043230
O        0.6855356535    1.1240333802   -0.3090814958
O        0.8838264670   -1.4344148469   -0.5334861042
P       -0.0832529250   -0.1960168765   -0.8357623626
Cl      -3.7298991843    1.7087729333    0.8567546395
Cl      -5.1361350543   -0.8493657464    1.1386700879
Cl      -2.9444488066   -0.1978641381    2.9694387353
H        2.0078897563    2.6311760649   -0.6839015072
H        1.2090599001    1.9738105034   -2.1475942464
H        2.5107389887    1.0453075327   -1.3402007823
H        2.0241249119   -2.5612354340    0.7198174911
H        0.5600383486   -1.8775776816    1.4835935092
H        1.9727623784   -0.8258504964    1.1500860021
H       -1.1248502813    0.5632095318    1.0972265592
20   
Generated by ForceBalance from scan.xyz: Frame 23 of 24
C       -2.5055507575   -0.6657359986    0.3008712723
C        1.7377799610    1.7238534459   -1.2038927989
C        1.2003925523   -1.7295863960    0.7908224027
C       -3.5929608770   -0.0844977715    1.2787851347
N       -1.2903663374   -0.0180364160    0.3776503729
O       -2.7396593026   -1.6103909596   -0.4150802263
O       -0.5510054454   -0.0502690315   -2.2608319701
O        0.7546426718    1.1353439723   -0.3139578036
O        0.7418148286   -1.4352325947   -0.5465054512
P       -0.1044920101   -0.1178364253   -0.8623589203
Cl      -3.8860961848    1.6466232060    0.8505489015
Cl      -5.0961636432   -1.0053589343    1.1491611595
Cl      -2.9549973150   -0.1810890050    2.9736368922
H        2.1159938386    2.6070017091   -0.6897086216
H        1.2673525620    2.0024042969   -2.1488302451
H        2.5535654050    1.0184229651   -1.3843990212
H        1.7578121945   -2.6630679117    0.7178439943
H        0.3481552322   -1.8556269434    1.4635871154
H        1.8519057654   -0.9308926336    1.1568916205
H       -1.2313225775    0.8144974536    0.9576127118
20   
Generated by ForceBalance from scan.xyz: Frame 24 of 24
C       -2.3974734673   -0.6197893589    0.2606159418
C        1.8942575682    1.7519117969   -1.2251521621
C        1.0566964800   -1.7060948373    0.7798094674
C       -3.4958850126   -0.1190049222    1.2697875911
N       -1.2713187859    0.1691160790    0.2280131987
O       -2.5419971407   -1.6410831726   -0.3714606847
O       -0.4004491966    0.0762470343   -2.3690654150
O        0.8743647505    1.1859728442   -0.3617785131
O        0.7043583947   -1.3807526689   -0.5827969496
P       -0.0329613082   -0.0141864575   -0.9481423221
Cl      -3.8858237380    1.6152829310    0.9390721436
Cl      -4.9581541757   -1.1024424717    1.1274248808
Cl      -2.8070568411   -0.2681511418    2.9395220523
H        2.2868575511    2.6192908553   -0.6950227228
H        1.4549507880    2.0507684976   -2.1787401124
H        2.6922282102    1.0233263562   -1.3918119337
H        1.6312079943   -2.6305773329    0.7274748728
H        0.1537672896   -1.8630463647    1.3748411744
H        1.6644009126   -0.9108830965    1.2207188283
H       -1.2774036758    1.0508475766    0.7324061515
