19   

C        0.2864808700   -1.1772538858    0.6306168389
C        2.6562739872   -0.8078657368    0.4968734180
C        0.4337981426   -1.4176321512    2.0060663614
C        2.7337698947   -1.0584043091    1.8789037954
C        1.4104712069   -0.8736013174   -0.1498429341
C        1.1656998246   -0.5942062121   -1.6246463529
C        1.7530027220   -1.5937700286    4.0526577833
N        1.6391338512   -1.3614685246    2.6047002768
N        2.2551292836   -0.6108878080   -2.4426087570
O        0.0635738564   -0.3758919768   -2.0890632876
H       -0.6991717588   -1.2198421326    0.1684591585
H        3.5573719510   -0.5464109117   -0.0498074693
H       -0.4534317778   -1.6503497732    2.5895151926
H        3.7031378394   -0.9986697529    2.3671968932
H        1.8705903456   -2.6625806517    4.2599611370
H        2.6149079861   -1.0560639914    4.4604992552
H        0.8606472669   -1.2257956613    4.5693542017
H        2.0596278953   -0.4491957871   -3.4266777769
H        3.1639007524   -0.9308466302   -2.1383675092
19   

C        0.3036069957   -1.1998505692    0.6072979876
C        2.6563242422   -0.7241137220    0.5104628529
C        0.4471437862   -1.4691835945    1.9779825854
C        2.7310891614   -1.0063203065    1.8863185017
C        1.4219075580   -0.8248216757   -0.1501957205
C        1.1976617185   -0.5066853582   -1.6174457621
C        1.7508067241   -1.6326886044    4.0358363215
N        1.6429202199   -1.3749180161    2.5917365665
N        2.2370359440   -0.7602820158   -2.4587974403
O        0.1364293779   -0.1117759685   -2.0587092449
H       -0.6729411679   -1.2670210810    0.1292771061
H        3.5460271320   -0.4053385958   -0.0259815422
H       -0.4350908023   -1.7534841477    2.5459383297
H        3.6917339717   -0.9146589500    2.3867668263
H        1.9020419649   -2.7008872379    4.2233002243
H        2.5905071826   -1.0750787965    4.4628771293
H        0.8420423544   -1.3043328632    4.5506746157
H        2.0495034764   -0.5970354510   -3.4441122180
H        3.0682443301   -1.2525595663   -2.1600328406
19   

C        0.3257686691   -1.2238159584    0.5927635433
C        2.6570350931   -0.6498711731    0.5313247204
C        0.4675443270   -1.5196155582    1.9583684397
C        2.7314624809   -0.9610117291    1.9007543253
C        1.4341119301   -0.7802619666   -0.1424254813
C        1.2309157939   -0.4273175026   -1.6034517451
C        1.7564794144   -1.6708810848    4.0266198773
N        1.6525893058   -1.3893140625    2.5866728776
N        2.1631952416   -0.8982640296   -2.4724962612
O        0.2377256819    0.1368132389   -2.0167400991
H       -0.6417003245   -1.3154448620    0.1011158838
H        3.5353590306   -0.2844008036    0.0049101808
H       -0.4073646151   -1.8523735407    2.5111276652
H        3.6832490848   -0.8415139817    2.4121498810
H        1.9393624291   -2.7371316839    4.1958470300
H        2.5749172093   -1.0956668949    4.4712742589
H        0.8338518884   -1.3799420861    4.5393548819
H        1.9745138253   -0.7263413888   -3.4560266856
H        2.9106521849   -1.5147930110   -2.1811225949
19   

C        0.3586359055   -1.2687973475    0.5748070860
C        2.6627172671   -0.5956880733    0.5503218118
C        0.4986205153   -1.5835784128    1.9366256941
C        2.7369254720   -0.9283436805    1.9144186250
C        1.4538003414   -0.7611299479   -0.1387378690
C        1.2674855389   -0.3691497741   -1.5917339724
C        1.7688279404   -1.7086744431    4.0184268111
N        1.6699869243   -1.4131288961    2.5809213832
N        2.0351645654   -1.0228903143   -2.4987149654
O        0.3893871152    0.3824000674   -1.9634044200
H       -0.5992468368   -1.3886616761    0.0714428089
H        3.5287554075   -0.1846125674    0.0367281940
H       -0.3670786254   -1.9619124422    2.4743595803
H        3.6776855557   -0.7770633410    2.4376708383
H        1.9890515335   -2.7693959520    4.1772524308
H        2.5607166060   -1.1091755356    4.4788704411
H        0.8308554172   -1.4574664968    4.5243382085
H        1.8451644730   -0.8139298956   -3.4746890438
H        2.6826306676   -1.7536085631   -2.2315562843
19   

C        0.4140868393   -1.3083822636    0.5436590505
C        2.6859558942   -0.5406428862    0.5833092979
C        0.5362419503   -1.6378273772    1.9041730158
C        2.7443133188   -0.8901937418    1.9434727867
C        1.5026591056   -0.7457761842   -0.1378624091
C        1.3479185484   -0.3091795893   -1.5821885613
C        1.7613893166   -1.7348162096    4.0148512341
N        1.6841869901   -1.4283613147    2.5783108930
N        1.9106401949   -1.1033772470   -2.5239326096
O        0.6790866389    0.6486501675   -1.9108595073
H       -0.5280623037   -1.4574807747    0.0197768866
H        3.5435592960   -0.0832094294    0.0949545570
H       -0.3250572384   -2.0579342047    2.4173904835
H        3.6658402194   -0.7056582154    2.4897765544
H        2.0334067676   -2.7840973524    4.1690475154
H        2.5080653689   -1.0992147016    4.5017592215
H        0.7988259676   -1.5389031014    4.4985084736
H        1.7567671642   -0.8297720514   -3.4901678254
H        2.4127565757   -1.9498815448   -2.2864857837
19   

C        0.8825351905   -0.0594729013    0.7027870194
C        2.5012436004   -1.8071477952    0.4445668562
C        0.8111572618   -0.3740664609    2.0711538258
C        2.3870413470   -2.0727581915    1.8193589975
C        1.7380838303   -0.7861865318   -0.1357525593
C        1.9094634904   -0.3965973490   -1.5921232880
C        1.4959924983   -1.6360173813    4.0497537275
N        1.5528149662   -1.3646888200    2.6052298140
N        1.0642500478   -0.9669575755   -2.4828358982
O        2.7662935984    0.3754368308   -1.9692528430
H        0.2986470600    0.7630117007    0.2951267214
H        3.2023169819   -2.3683548829   -0.1696642902
H        0.1503096175    0.2104133864    2.7062081435
H        3.0007017614   -2.8596413369    2.2506659482
H        0.8076016452   -2.4615887085    4.2579217624
H        2.4907018532   -1.8938845431    4.4279615879
H        1.1585901170   -0.7476438160    4.5932223885
H        1.1954343941   -0.7062583681   -3.4559398429
H        0.3487855665   -1.6262122438   -2.2022281525
19   

C        0.8746126593   -0.1262219122    0.6757125567
C        2.5759320634   -1.7990354306    0.4797696633
C        0.7899626612   -0.4227781607    2.0479176001
C        2.4469953990   -2.0494322338    1.8555052201
C        1.7751244053   -0.8284857026   -0.1353722821
C        1.9775249397   -0.4608081465   -1.5933599693
C        1.4897036333   -1.6234608165    4.0598047742
N        1.5643846286   -1.3703032974    2.6128111815
N        0.9964967806   -0.8231676166   -2.4546216147
O        3.0037440106    0.0360230221   -2.0094247165
H        0.2621976368    0.6634960994    0.2462665966
H        3.3168120678   -2.3322775937   -0.1128933011
H        0.0909760732    0.1402475229    2.6611481783
H        3.0890243072   -2.7996246792    2.3102543111
H        0.8287081631   -2.4714380103    4.2667904058
H        2.4857606049   -1.8392141132    4.4602004639
H        1.1094036068   -0.7409123006    4.5840437174
H        1.1705695880   -0.6302857494   -3.4367984790
H        0.1717263730   -1.3264502136   -2.1521574006
19   

C        0.8464008206   -0.1789808379    0.6543208252
C        2.6181518257   -1.7785022880    0.5015769099
C        0.7601006427   -0.4591872664    2.0303471610
C        2.4864879971   -2.0152304236    1.8789352907
C        1.7824719591   -0.8539114350   -0.1385412639
C        1.9917886041   -0.5166036486   -1.6026124916
C        1.4865932868   -1.6036872706    4.0662147521
N        1.5676235364   -1.3647443145    2.6171636653
N        0.9146193507   -0.6557219641   -2.4166198162
O        3.0829589986   -0.2615691207   -2.0700737403
H        0.2046971653    0.5785126682    0.2103375325
H        3.3863300863   -2.2883363015   -0.0774847443
H        0.0312919439    0.0816306405    2.6286532791
H        3.1552492477   -2.7314465057    2.3496821656
H        0.8781992907   -2.4898532469    4.2746582031
H        2.4881309982   -1.7498990990    4.4840511272
H        1.0417502950   -0.7413717184    4.5729276793
H        1.0865808163   -0.5106905069   -3.4074528672
H        0.0291887806   -1.0146946683   -2.0825186265
19   

C        0.8337299207   -0.2572101957    0.6146948343
C        2.6714570175   -1.7811926503    0.5168617551
C        0.7478756059   -0.5065116552    1.9970713192
C        2.5390827605   -1.9898270985    1.8982460610
C        1.8039498565   -0.9090017770   -0.1557662292
C        2.0105067482   -0.6317080283   -1.6332822940
C        1.5000103724   -1.5732171636    4.0658576944
N        1.5872121280   -1.3620727392    2.6128737373
N        0.8853041779   -0.5576089552   -2.3938100279
O        3.1078139723   -0.5838270843   -2.1519080362
H        0.1616699278    0.4614347308    0.1522610975
H        3.4620498535   -2.2774527570   -0.0441706172
H       -0.0089987805    0.0161394913    2.5763788504
H        3.2324872412   -2.6672693527    2.3902718505
H        0.9102351920   -2.4687671346    4.2875104990
H        2.5010931782   -1.6888896787    4.4941609213
H        1.0320786682   -0.7110337751    4.5515210843
H        1.0379269288   -0.4520601874   -3.3928835263
H       -0.0307380173   -0.7760483859   -2.0240711648
19   

C        0.8162636401   -0.3239022777    0.6050655645
C        2.7236703043   -1.7580642902    0.5582565302
C        0.7277433319   -0.5489421163    1.9917759741
C        2.5871790511   -1.9455326918    1.9418445780
C        1.8253951989   -0.9403409831   -0.1446399812
C        2.0329836365   -0.7216045589   -1.6332575127
C        1.5021186118   -1.5418519259    4.0889338552
N        1.5993081564   -1.3505096776    2.6338699148
N        0.9233674615   -0.4361053863   -2.3689174360
O        3.1117623537   -0.8482514564   -2.1779046750
H        0.1104051049    0.3508677564    0.1285535275
H        3.5389673087   -2.2357560065    0.0163378627
H       -0.0606962803   -0.0536387074    2.5527133937
H        3.3049257115   -2.5822361717    2.4529983653
H        0.9276704475   -2.4455077835    4.3180327182
H        2.5009025050   -1.6327925889    4.5283427161
H        1.0135160777   -0.6816074570    4.5573384987
H        1.0769808861   -0.3492312610   -3.3697147363
H       -0.0111436694   -0.5045667232   -1.9891408116
19   

C        0.7842931523   -0.3873911720    0.5957805507
C        2.7581893417   -1.7249737104    0.5794811529
C        0.7079555076   -0.5849943419    1.9876883687
C        2.6324778166   -1.8880852769    1.9668125077
C        1.8227128695   -0.9666135046   -0.1441015965
C        2.0156619535   -0.8104768409   -1.6451238941
C        1.5246046615   -1.4991067138    4.1045925883
N        1.6174289167   -1.3276115944    2.6467933681
N        0.9601305889   -0.3259944160   -2.3572048916
O        3.0469731748   -1.1076018206   -2.2155984309
H        0.0366331359    0.2340429476    0.1124605660
H        3.5917906710   -2.1840091698    0.0491656311
H       -0.1059966241   -0.1203125069    2.5382802426
H        3.3788360447   -2.4809025878    2.4896425057
H        0.9803678024   -2.4179556568    4.3469308054
H        2.5251109876   -1.5505848951    4.5463846804
H        1.0068963841   -0.6484884515    4.5590346889
H        1.1104157858   -0.2587609880   -3.3600538627
H        0.0395267029   -0.2025431928   -1.9601011938
19   

C        0.7330929598   -0.5094652467    0.5954289073
C        2.8006320462   -1.6905354055    0.6002610677
C        0.6804948771   -0.6719503144    1.9930510147
C        2.6974802780   -1.8231397462    1.9925297261
C        1.8080301234   -1.0241175393   -0.1405108236
C        1.9867015621   -0.9252420445   -1.6510636572
C        1.5732300176   -1.4671338545    4.1272181003
N        1.6480825111   -1.3223405660    2.6655148850
N        1.0220090917   -0.2819136544   -2.3565450078
O        2.9426418286   -1.3964477483   -2.2359248223
H       -0.0755949716    0.0201392181    0.1023208282
H        3.6606374832   -2.1092615282    0.0787429406
H       -0.1670763688   -0.2617964940    2.5361651374
H        3.4883348281   -2.3463128373    2.5242026229
H        1.1022177910   -2.4195895037    4.3923582554
H        2.5760266136   -1.4317253240    4.5653213326
H        0.9924885383   -0.6491441974    4.5650000223
H        1.1765407969   -0.2359157795   -3.3599045685
H        0.2083988013    0.1410938780   -1.9342042016
19   

C        0.6829829777   -0.5837034880    0.5767173092
C        2.8300345197   -1.6209607029    0.5906510068
C        0.6504082536   -0.7200442165    1.9776510529
C        2.7435701074   -1.7305241853    1.9862239531
C        1.7898761614   -1.0371292503   -0.1516997739
C        1.9236473073   -0.9700900334   -1.6656918770
C        1.6043802458   -1.4156120456    4.1199157620
N        1.6655449134   -1.2877436770    2.6560036210
N        1.0517816957   -0.1596717989   -2.3282856543
O        2.7670127942   -1.5886319571   -2.2849475781
H       -0.1708449741   -0.1408935745    0.0731025867
H        3.7078173218   -1.9978071772    0.0668961621
H       -0.2232778422   -0.3644812237    2.5178879862
H        3.5690620897   -2.1912469964    2.5229960633
H        1.1844849507   -2.3875316745    4.4001120425
H        2.6056970116   -1.3228737621    4.5528752759
H        0.9837264450   -0.6227998051    4.5491488065
H        1.1835301733   -0.1154583845   -3.3350133321
H        0.4319890061    0.4834602157   -1.8564218538
19   

C        0.6472606038   -0.6382504817    0.5718442822
C        2.8442196091   -1.5713801699    0.5825503644
C        0.6334853053   -0.7499984237    1.9749636426
C        2.7745581825   -1.6591477040    1.9809556650
C        1.7707157047   -1.0494969952   -0.1556935997
C        1.8566075560   -1.0280604318   -1.6719123050
C        1.6351305472   -1.3699724904    4.1185948530
N        1.6815078493   -1.2561679331    2.6529808559
N        1.1315717341   -0.0691699481   -2.3111899880
O        2.5737124019   -1.7765255109   -2.3059642848
H       -0.2313123784   -0.2561408119    0.0593263191
H        3.7286195506   -1.9233993879    0.0529402888
H       -0.2534346315   -0.4310176875    2.5164888960
H        3.6236695123   -2.0740292168    2.5182665264
H        1.2724080127   -2.3609377785    4.4118702955
H        2.6315997954   -1.2156128657    4.5450024133
H        0.9718972544   -0.6093459582    4.5422992394
H        1.2477570690   -0.0382670409   -3.3202917306
H        0.6728040266    0.6836444788   -1.8162006792
19   

C        0.6014738179   -0.6848093845    0.5733265652
C        2.8411952807   -1.5171575043    0.5641365657
C        0.6093486004   -0.7834576079    1.9771144058
C        2.7911804739   -1.5946132143    1.9644134798
C        1.7363018109   -1.0493131697   -0.1613831732
C        1.7729551764   -1.0606300802   -1.6783900612
C        1.6615759040   -1.3441101761    4.1126318547
N        1.6880851088   -1.2352654672    2.6461363073
N        1.2317293030    0.0176403587   -2.3048139555
O        2.3441449773   -1.9195108767   -2.3198492299
H       -0.2971047945   -0.3515286957    0.0601089985
H        3.7296174141   -1.8412280504    0.0239972524
H       -0.2857679567   -0.5022904820    2.5260656058
H        3.6627348465   -1.9688712924    2.4955721995
H        1.3553682166   -2.3517925421    4.4134673575
H        2.6520545849   -1.1341916387    4.5290618275
H        0.9616957973   -0.6187925707    4.5392734771
H        1.3339646674    0.0340940912   -3.3156770093
H        0.9120873883    0.8323183350   -1.7971893485
19   

C        0.5489804597   -0.7298392462    0.5887153710
C        2.8251117764   -1.4634917123    0.5507810046
C        0.5818104603   -0.8164634320    1.9925571939
C        2.7981070152   -1.5314807314    1.9526209000
C        1.6894155486   -1.0497851109   -0.1579476132
C        1.6767117763   -1.0897704077   -1.6743369146
C        1.6870830763   -1.3202024414    4.1151439594
N        1.6895487067   -1.2156785926    2.6480904468
N        1.3504569205    0.0655163354   -2.3068449263
O        2.0607034639   -2.0493531160   -2.3115037536
H       -0.3686432140   -0.4413966019    0.0813250643
H        3.7160431003   -1.7584490538   -0.0011072969
H       -0.3173249779   -0.5716723804    2.5522639249
H        3.6915195608   -1.8653357546    2.4742966023
H        1.4423453403   -2.3426394070    4.4225615848
H        2.6687391104   -1.0523904126    4.5189759314
H        0.9514765049   -0.6350951630    4.5480860290
H        1.4279883842    0.0530137631   -3.3198540307
H        1.1742974323    0.9251845388   -1.8024601177
19   

C        0.5131956429   -0.7853518027    0.5900599198
C        2.8243002469   -1.4068820562    0.5321538076
C        0.5626372357   -0.8658385171    1.9932914479
C        2.8117812842   -1.4716431053    1.9348854419
C        1.6620386824   -1.0535442097   -0.1651374088
C        1.6181017617   -1.1039379735   -1.6807218320
C        1.7080806344   -1.3131997693    4.1064266335
N        1.6944534119   -1.2091936500    2.6393848350
N        1.5313937130    0.0847768965   -2.3243078096
O        1.7612992942   -2.1321157721   -2.3095590666
H       -0.4204444587   -0.5433228467    0.0872177617
H        3.7236744894   -1.6611639415   -0.0254898684
H       -0.3428162482   -0.6638762331    2.5598768240
H        3.7241082697   -1.7605441753    2.4505997866
H        1.5006303209   -2.3432939053    4.4157987805
H        2.6834168510   -1.0124959978    4.5022201753
H        0.9532946616   -0.6532292828    4.5454095302
H        1.5681110124    0.0472252524   -3.3389114597
H        1.5093999603    0.9668309060   -1.8277991687
19   

C        0.4518254305   -0.8326955226    0.6055454010
C        2.7928953541   -1.3347354372    0.5125246725
C        0.5247581940   -0.9134198337    2.0071801252
C        2.8017819083   -1.4028574410    1.9157291591
C        1.6020626343   -1.0457351341   -0.1658178352
C        1.5232931668   -1.0813211708   -1.6804713514
C        1.7195712351   -1.3082821249    4.1025563628
N        1.6815227035   -1.2007988948    2.6361784378
N        1.6867989800    0.0963651955   -2.3278136760
O        1.3407840540   -2.1048816162   -2.3061213613
H       -0.4983968373   -0.6358684804    0.1136993231
H        3.6983884767   -1.5376306294   -0.0554965950
H       -0.3821456583   -0.7582406223    2.5860606091
H        3.7342883282   -1.6442761491    2.4196247204
H        1.5546554002   -2.3462293605    4.4113242455
H        2.6884249461   -0.9729040052    4.4861206043
H        0.9469681858   -0.6778893586    4.5539040879
H        1.6432975318    0.0604189861   -3.3421723883
H        1.8565311283    0.9642945018   -1.8347198230
19   

C        0.3931385634   -0.8818916160    0.6274668863
C        2.7578314822   -1.2604583101    0.4993851868
C        0.4893426729   -0.9623449122    2.0271301062
C        2.7881714386   -1.3317561749    1.9027310763
C        1.5418869119   -1.0388317979   -0.1599579249
C        1.4265773757   -1.0511547745   -1.6722924499
C        1.7307682512   -1.3004719572    4.1043622752
N        1.6681001284   -1.1916751903    2.6389140005
N        1.8338877066    0.0633290987   -2.3254812437
O        0.9132412341   -1.9647199011   -2.2844107976
H       -0.5711568379   -0.7309597576    0.1461485874
H        3.6668639009   -1.4087472388   -0.0793043045
H       -0.4166425904   -0.8544337682    2.6180734366
H        3.7384715903   -1.5231917625    2.3947050430
H        1.6000193534   -2.3432109315    4.4133483299
H        2.6951491579   -0.9385711556    4.4747672699
H        0.9472808525   -0.6927629875    4.5679756688
H        1.7045049500    0.0639191819   -3.3331553610
H        2.1989843444    0.8719387722   -1.8376933818
19   

C        0.3518106705   -0.9386928560    0.6377288666
C        2.7327552915   -1.2001688777    0.4873491827
C        0.4628039285   -1.0275131302    2.0353586685
C        2.7764793926   -1.2831875550    1.8901315718
C        1.5007851523   -1.0331784360   -0.1593680248
C        1.3553691648   -1.0125911170   -1.6685540578
C        1.7354851971   -1.3185474586    4.1001326413
N        1.6563074318   -1.2044937711    2.6358755530
N        1.9901232788   -0.0074403715   -2.3222986621
O        0.6070835624   -1.7565817383   -2.2690011781
H       -0.6214779025   -0.8269260356    0.1628991623
H        3.6446239182   -1.2959882263   -0.0975541359
H       -0.4429160224   -0.9674689938    2.6334809593
H        3.7384062120   -1.4310620702    2.3744702617
H        1.6406466529   -2.3663253973    4.4050373592
H        2.6910856394   -0.9280141731    4.4641355684
H        0.9374162752   -0.7378096791    4.5734405922
H        1.8200765892    0.0492777300   -3.3223820201
H        2.5100393457    0.7105596886   -1.8337142756
19   

C        0.3184063248   -0.9777770014    0.6439296675
C        2.7087689041   -1.1328380193    0.4788256772
C        0.4397165764   -1.0876618946    2.0389028385
C        2.7617198063   -1.2399557260    1.8799559019
C        1.4666209824   -1.0034574849   -0.1592368842
C        1.2932275498   -0.9452966304   -1.6647278276
C        1.7332963589   -1.3522863099    4.0936838319
N        1.6425912723   -1.2222674175    2.6314152209
N        2.1196299037   -0.0970819657   -2.3325405549
O        0.3971137523   -1.5179472352   -2.2516550670
H       -0.6613801168   -0.8960626179    0.1755155151
H        3.6228608840   -1.1801999473   -0.1079804803
H       -0.4651706305   -1.0765604445    2.6411964318
H        3.7309490719   -1.3545431668    2.3587067830
H        1.6686780485   -2.4057867149    4.3863487761
H        2.6799850982   -0.9403521056    4.4574016909
H        0.9227616610   -0.7986304031    4.5782352422
H        1.9416372484   -0.0026059968   -3.3284790276
H        2.7598124746    0.5222335418   -1.8526047414
19   

C        0.2906643052   -1.0117295798    0.6577485480
C        2.6853310542   -1.0602836117    0.4798932828
C        0.4232131143   -1.1461447726    2.0492943218
C        2.7485089477   -1.1948402922    1.8784728087
C        1.4345688903   -0.9654566919   -0.1504500218
C        1.2291305677   -0.8766067200   -1.6517648908
C        1.7359820104   -1.3906469027    4.0939050454
N        1.6332648065   -1.2399103050    2.6344173594
N        2.1941727446   -0.2254026256   -2.3577727673
O        0.2351231025   -1.2921976450   -2.2139708825
H       -0.6956199366   -0.9590577796    0.1982840240
H        3.6009083069   -1.0593089625   -0.1054933379
H       -0.4787225843   -1.1856994011    2.6548224567
H        3.7235489413   -1.2777793930    2.3519016648
H        1.7146925176   -2.4504911874    4.3693599653
H        2.6670503738   -0.9470362892    4.4607003608
H        0.9063849378   -0.8775461523    4.5907588473
H        2.0119456110   -0.1232373314   -3.3522703971
H        2.9406572260    0.2877726629   -1.9083970031
19   

C        0.2747098674   -1.0570422231    0.6535228051
C        2.6698686481   -0.9836282157    0.4862576262
C        0.4085311294   -1.2197079214    2.0417057408
C        2.7333779870   -1.1497920812    1.8816364079
C        1.4172333481   -0.9317593144   -0.1484124152
C        1.1919696050   -0.8068594927   -1.6473013411
C        1.7223742125   -1.4427533649    4.0873747834
N        1.6189922927   -1.2677322169    2.6306347299
N        2.2464915644   -0.3744029988   -2.3936322456
O        0.1318526723   -1.0586330142   -2.1865513646
H       -0.7138462487   -1.0366093631    0.1960846538
H        3.5903484444   -0.9202081727   -0.0863589240
H       -0.4928944621   -1.3164730924    2.6415466686
H        3.7091098035   -1.1944874982    2.3587434010
H        1.7219136714   -2.5074872177    4.3439820383
H        2.6439261389   -0.9876638518    4.4639942542
H        0.8822091751   -0.9543937906    4.5914561383
H        2.0601970095   -0.2728287929   -3.3874798468
H        3.0955732286   -0.0113882991   -1.9836300685
19   

C        0.2849806638   -1.1327645467    0.6470202411
C        2.6717087932   -0.8957627468    0.4869007451
C        0.4307308772   -1.3424775542    2.0274708815
C        2.7459148009   -1.1125567583    1.8750670551
C        1.4177264141   -0.9065802578   -0.1474163771
C        1.1587426288   -0.6842814193   -1.6329146483
C        1.7550126391   -1.5422289647    4.0680798872
N        1.6420388057   -1.3343154994    2.6163370856
N        2.2353888489   -0.4622999018   -2.4305900043
O        0.0461927060   -0.6904647609   -2.1238585863
H       -0.7064594143   -1.1455753507    0.1955196396
H        3.5848721559   -0.7208141253   -0.0728955289
H       -0.4625817144   -1.5155819713    2.6222781861
H        3.7214274425   -1.1005192125    2.3545157158
H        1.8058341129   -2.6118239893    4.2975607102
H        2.6537211990   -1.0529719484    4.4569176878
H        0.8930127684   -1.1069757405    4.5840057036
H        2.0243753111   -0.3197468265   -3.4143804961
H        3.1880471990   -0.4644458994   -2.0961847772
