45   

C       -2.7926435900   -1.1499851603   -0.8874511235
C       -1.7908690957   -0.1097956037   -0.6153853132
C       -0.6460821554   -0.6448741538   -0.0525816248
C       -4.0938193054   -0.9901784824   -1.5270878339
C       -2.3850436090   -2.3895686268   -0.5046182218
C       -4.4824332249   -3.3174969263   -1.2264757210
C       -7.2922861034   -1.8417457363   -1.0625456904
C       -7.9017777202   -0.7340216601   -0.6047004323
C       -2.0295356568    1.3570897078   -0.8871296884
C       -8.6139601185   -0.7484001083    0.7275725271
C       -7.7940174775    0.5871167609   -1.3289489801
C       -0.5642990287   -5.5979682104   -3.2133626913
C        0.6034623824    0.0771004162    0.3753703203
C       -6.2911451490   -1.9302288140   -2.1857226981
C       -2.7649039557   -4.8454092918   -0.2952146926
C       -2.2262244324   -5.6265986853   -1.4943191570
N       -4.9487980260   -2.0732063522   -1.6220291632
N       -3.2132958320   -3.5045449875   -0.6797369683
O       -4.4042565483    0.0810146536   -2.0286900033
O       -5.2124394909   -4.2935003170   -1.3587831452
O        1.7100222908   -0.4734971884   -0.3364596559
O       -1.0690440543   -4.9743418054   -2.0297543888
S       -0.7641636125   -2.3896927152    0.1806362301
H       -7.4694797646   -2.7711997515   -0.5320106405
H       -3.0136652159    1.6508637336   -0.5100621031
H       -1.2916024217    1.9942827676   -0.3971819822
H       -1.9995358126    1.5446152992   -1.9645201455
H       -8.2940288391    0.1014892296    1.3381823133
H       -9.6950700723   -0.6837399260    0.5723204448
H       -8.3949131214   -1.6660922470    1.2822044227
H       -8.4351786191    0.5796687843   -2.2149265274
H       -8.1152986410    1.4082877846   -0.6815220277
H       -6.7679168074    0.7968683755   -1.6336384812
H        0.3495022935   -5.0892898160   -3.5350828201
H       -1.3004997337   -5.5360177426   -4.0210101402
H       -0.3279291561   -6.6497142890   -3.0227264932
H        0.5395115708    1.1475659328    0.1690881804
H        0.7550167459   -0.0524447696    1.4516297784
H       -6.3598480207   -1.0607435131   -2.8472860635
H       -6.5293002737   -2.7945215804   -2.8157498107
H       -3.5995953934   -5.4000855004    0.1460843540
H       -1.9935368939   -4.7930668144    0.4778065800
H       -3.0052404998   -5.7082339314   -2.2598923817
H       -1.9586978868   -6.6372637723   -1.1700109538
H        1.4974920935   -0.5482092381   -1.2841584031
45   

C       -2.8771436320   -1.2079528849   -0.8729149908
C       -1.8975154902   -0.1583255796   -0.5578504037
C       -0.7674102852   -0.6850071061    0.0414865016
C       -4.1809306686   -1.0536212370   -1.5105970594
C       -2.4588656587   -2.4479088025   -0.5004023268
C       -4.5151733985   -3.4016152853   -1.3008083594
C       -7.3296439464   -1.9005556582   -1.1261654184
C       -7.8734741803   -0.7660393769   -0.6482644156
C       -2.1236404477    1.3028703219   -0.8677169189
C       -8.2849444352   -0.6582940078    0.8009652283
C       -7.8854255326    0.4963423078   -1.4745201245
C       -0.5074554085   -5.5904206734   -3.1988817730
C        0.4543298443    0.0428481224    0.5313736986
C       -6.3334065207   -2.0220733350   -2.2529780626
C       -2.8026750387   -4.9132105890   -0.3361206352
C       -2.2169948663   -5.6694011224   -1.5291170780
N       -4.9958130803   -2.1582010271   -1.6797192954
N       -3.2617845494   -3.5743929001   -0.7155010723
O       -4.5469275132    0.0424858877   -1.9119100335
O       -5.2216562816   -4.3881602266   -1.4748134606
O        1.5479748173   -0.2982353459   -0.3181315390
O       -1.0561263135   -4.9910812684   -2.0222931758
S       -0.8630174567   -2.4340769368    0.2410777892
H       -7.4544676003   -2.8005478565   -0.5336531051
H       -2.9663640075    1.6788672197   -0.2796330560
H       -1.2470081309    1.9145252040   -0.6487296848
H       -2.3574273384    1.4272151084   -1.9291782744
H       -7.9384750305    0.2900339550    1.2230207316
H       -9.3748600706   -0.7033010354    0.8835121685
H       -7.8537964193   -1.4725039302    1.3915644042
H       -8.6736579639    1.1689231895   -1.1230492786
H       -6.9270378986    1.0156664705   -1.3869937485
H       -8.0810334745    0.2745257384   -2.5274963022
H        0.4057364022   -5.0617221705   -3.4884385365
H       -1.2218315502   -5.5310162810   -4.0260897067
H       -0.2578106183   -6.6402479428   -3.0146964335
H        0.3054442493    1.1248920613    0.5240908734
H        0.6765470657   -0.2557652100    1.5607000962
H       -6.3857798718   -1.1591514238   -2.9244284004
H       -6.5802826539   -2.8936746892   -2.8693854067
H       -3.6407762796   -5.4869858315    0.0731512082
H       -2.0550488679   -4.8597394901    0.4597610951
H       -2.9722267737   -5.7534699376   -2.3178983553
H       -1.9420651503   -6.6798334469   -1.2103260509
H        1.2708369480   -0.2766737861   -1.2515810462
45   

C       -2.9296984485   -1.2410499726   -0.8746417998
C       -1.9657337703   -0.1866829020   -0.5285131791
C       -0.8401101821   -0.7111208763    0.0811021390
C       -4.2265304074   -1.0898507040   -1.5271467383
C       -2.5046518493   -2.4822967523   -0.5139915975
C       -4.5380636054   -3.4447872890   -1.3608357384
C       -7.3522931982   -1.9263558098   -1.1733119564
C       -7.8220156806   -0.7752251964   -0.6518178656
C       -2.1992688969    1.2766407793   -0.8224369359
C       -7.9168183328   -0.5734496941    0.8415170302
C       -7.9534359132    0.4504864467   -1.5211715700
C       -0.4828604642   -5.5736126335   -3.2189396152
C        0.3661658332    0.0216467622    0.6010438488
C       -6.3611734221   -2.0661127679   -2.3058903756
C       -2.8285695278   -4.9525033567   -0.3851637159
C       -2.2166152491   -5.6897875818   -1.5766633778
N       -5.0245621470   -2.2009924035   -1.7303614250
N       -3.2928655711   -3.6134416184   -0.7573126310
O       -4.6045149127    0.0106631239   -1.9048585492
O       -5.2333961012   -4.4350108872   -1.5568059734
O        1.4777932352   -0.2998814097   -0.2326081899
O       -1.0539537241   -4.9954305389   -2.0424827653
S       -0.9210163019   -2.4638242664    0.2530760066
H       -7.4364800944   -2.8122775464   -0.5531305484
H       -3.0417928057    1.6428063714   -0.2279171462
H       -1.3240300409    1.8893190354   -0.6005627165
H       -2.4363553926    1.4115553331   -1.8818454290
H       -7.4736837159    0.3866926061    1.1230033684
H       -8.9652037606   -0.5828650605    1.1535655145
H       -7.3837646241   -1.3657950787    1.3759192848
H       -8.7718569860    1.0796850223   -1.1585352252
H       -7.0290725937    1.0349458378   -1.4932640590
H       -8.1734378724    0.1772350396   -2.5572817095
H        0.4294176695   -5.0326644216   -3.4880058879
H       -1.1857818872   -5.5094620758   -4.0555539838
H       -0.2261512206   -6.6235187343   -3.0452478388
H        0.2075462515    1.1023521233    0.6036721682
H        0.5727515279   -0.2870539061    1.6306499952
H       -6.4095032163   -1.2048818526   -2.9802399967
H       -6.6154181082   -2.9403436574   -2.9155232943
H       -3.6683154819   -5.5380802561    0.0035338857
H       -2.0947963462   -4.9017800261    0.4236872830
H       -2.9579905704   -5.7713566733   -2.3787465993
H       -1.9378684829   -6.7013502568   -1.2648633574
H        1.2170549582   -0.2704629987   -1.1705574889
45   

C       -2.9899624482   -1.2518461105   -0.8589239922
C       -2.0435694234   -0.1884957487   -0.4924341897
C       -0.9195759204   -0.7036451158    0.1280007162
C       -4.2837186736   -1.1115989857   -1.5203353178
C       -2.5528920723   -2.4906618810   -0.5034085381
C       -4.5595244982   -3.4740654100   -1.3883602869
C       -7.3797965378   -1.9313141983   -1.2037020041
C       -7.7810164913   -0.7606775121   -0.6586433069
C       -2.2865787224    1.2738570289   -0.7830570220
C       -7.5627591681   -0.4541455488    0.8034938741
C       -8.1056439585    0.4064015265   -1.5584968977
C       -0.4629264155   -5.5484238211   -3.1979935158
C        0.2703275967    0.0404801349    0.6690030783
C       -6.3914154749   -2.1092003013   -2.3367333142
C       -2.8489756631   -4.9655061258   -0.3906423589
C       -2.2130285983   -5.6925653178   -1.5757350011
N       -5.0570045297   -2.2340224793   -1.7551680477
N       -3.3225776949   -3.6303699116   -0.7653386319
O       -4.6873763806   -0.0092168236   -1.8659254854
O       -5.2391956297   -4.4715957778   -1.6008868623
O        1.3982693378   -0.2652182052   -0.1485757455
O       -1.0523444232   -4.9836292010   -2.0241110313
S       -0.9799132251   -2.4584784504    0.2846634076
H       -7.4137951742   -2.7914834240   -0.5438705312
H       -3.1178287424    1.6388188723   -0.1722152788
H       -1.4073021565    1.8876817167   -0.5806888389
H       -2.5442554987    1.4079636788   -1.8377107808
H       -6.4924371540   -0.4711475231    1.0304380104
H       -7.9576676745    0.5342208042    1.0576449297
H       -8.0677592559   -1.2002767409    1.4239596397
H       -9.0873016770    0.8133154445   -1.2984955771
H       -7.3545618700    1.1933518614   -1.4353508041
H       -8.1309532322    0.1107942505   -2.6110588057
H        0.4456417847   -4.9954511432   -3.4548504820
H       -1.1581862079   -5.4876210034   -4.0412414415
H       -0.1958920275   -6.5962790833   -3.0275351081
H        0.0990226510    1.1192977481    0.6734851208
H        0.4646377631   -0.2701044173    1.7004402435
H       -6.4311292985   -1.2612726314   -3.0282870113
H       -6.6534317664   -2.9950948646   -2.9258654774
H       -3.6876936047   -5.5611670870   -0.0152175810
H       -2.1269260421   -4.9095531191    0.4283413179
H       -2.9427751569   -5.7803568247   -2.3877696220
H       -1.9269412527   -6.7017649034   -1.2629344412
H        1.1516029073   -0.2361462153   -1.0903243930
45   

C       -3.0264576980   -1.2597712247   -0.8632989748
C       -2.0901765340   -0.1928211031   -0.4817225834
C       -0.9732238385   -0.7037775785    0.1549649468
C       -4.3108373000   -1.1245785265   -1.5440717914
C       -2.5893911746   -2.4969894059   -0.5021126529
C       -4.5796357759   -3.4880502863   -1.4140276420
C       -7.4066680982   -1.9621556499   -1.2489227611
C       -7.7223388319   -0.8104249921   -0.6036181701
C       -2.3372450204    1.2684916497   -0.7738806858
C       -7.2294656337   -0.5097572625    0.7919206408
C       -8.1100563235    0.3874100192   -1.4390583934
C       -0.4575380726   -5.5391165683   -3.1804923123
C        0.2058518089    0.0438199582    0.7149345105
C       -6.4077186245   -2.1315629033   -2.3786375390
C       -2.8753936953   -4.9735437545   -0.3971336889
C       -2.2228420973   -5.6960050895   -1.5760159110
N       -5.0767405539   -2.2500133191   -1.7880887937
N       -3.3502124268   -3.6398131864   -0.7755145564
O       -4.7135705832   -0.0240334849   -1.8967440903
O       -5.2531355961   -4.4881853495   -1.6341048159
O        1.3541363812   -0.2816219568   -0.0659324824
O       -1.0604221232   -4.9810899727   -2.0102083505
S       -1.0284828125   -2.4590476735    0.3090291911
H       -7.4806070492   -2.8613671943   -0.6469602795
H       -3.1842231503    1.6258109523   -0.1803837371
H       -1.4674372128    1.8884274040   -0.5506726898
H       -2.5731168527    1.4031659661   -1.8335702303
H       -6.6253892250    0.4026097234    0.8004339852
H       -8.0792676404   -0.3787021587    1.4679655191
H       -6.6088633952   -1.3303773880    1.1646033770
H       -9.1484145216    0.6603423581   -1.2296591314
H       -7.4696357098    1.2442510716   -1.2072497138
H       -8.0233306286    0.1814502171   -2.5094379083
H        0.4513755649   -4.9817553852   -3.4263975986
H       -1.1448094709   -5.4776340889   -4.0302191371
H       -0.1882265698   -6.5866251645   -3.0114908573
H        0.0411929850    1.1234219654    0.6964546245
H        0.3704423826   -0.2502662620    1.7563368269
H       -6.4512986825   -1.2824785337   -3.0686261930
H       -6.6593816838   -3.0186324022   -2.9705405214
H       -3.7158642142   -5.5733275051   -0.0323150073
H       -2.1630364287   -4.9159698803    0.4301646736
H       -2.9429978512   -5.7859063393   -2.3963503136
H       -1.9357050338   -6.7043856925   -1.2615347408
H        1.1346166413   -0.2633677820   -1.0146600965
45   

C       -3.0643899447   -1.2257904820   -0.9198447494
C       -2.1359522022   -0.1560975239   -0.5272486931
C       -1.0379022915   -0.6609880372    0.1463755439
C       -4.3300174256   -1.0970021513   -1.6364419449
C       -2.6403598729   -2.4589855610   -0.5302196971
C       -4.6088140078   -3.4577120639   -1.4789787137
C       -7.4436038697   -1.9519709347   -1.3959383502
C       -7.6799501561   -0.8742902265   -0.5961909169
C       -2.3731851084    1.3013598170   -0.8451959880
C       -6.9845601792   -0.6726639680    0.7301888047
C       -8.1602869510    0.3829325563   -1.2812419906
C       -0.4492733150   -5.5334445701   -3.1209436865
C        0.1280107554    0.0904489898    0.7286863076
C       -6.4111635456   -2.1132073830   -2.5014135988
C       -2.9330121341   -4.9339554970   -0.4033198535
C       -2.2529785928   -5.6704731320   -1.5578147919
N       -5.0927690622   -2.2237397349   -1.8826010721
N       -3.3962266158   -3.6038358394   -0.8081418157
O       -4.7222815436   -0.0006560784   -2.0131171201
O       -5.2786933280   -4.4595173528   -1.7031900777
O        1.3025934211   -0.2747167661    0.0066396977
O       -1.0791106715   -4.9620701839   -1.9714556847
S       -1.1020011707   -2.4139403860    0.3222000357
H       -7.6311547349   -2.9068640485   -0.9170919386
H       -3.2391685055    1.6655419934   -0.2842001086
H       -1.5115143252    1.9246288961   -0.6010121261
H       -2.5744979650    1.4225358055   -1.9136289789
H       -6.3379085185    0.2096381942    0.6988446745
H       -7.7251493363   -0.5433393022    1.5246680301
H       -6.3627469304   -1.5404477751    0.9704567537
H       -9.2265435952    0.5264407045   -1.0842691927
H       -7.6174594566    1.2605354997   -0.9166437955
H       -8.0126949384    0.3261845304   -2.3640179735
H        0.4667666194   -4.9806971427   -3.3502615831
H       -1.1154512317   -5.4790976198   -3.9877848957
H       -0.1867779344   -6.5797816160   -2.9348109385
H       -0.0203637872    1.1707906860    0.6684236196
H        0.2465771230   -0.1713435784    1.7848680117
H       -6.4547787691   -1.2612472034   -3.1887282345
H       -6.6391560876   -3.0023977376   -3.0997715076
H       -3.7831656524   -5.5285122125   -0.0526273426
H       -2.2410721735   -4.8682677613    0.4405198789
H       -2.9529996393   -5.7686106779   -2.3944795975
H       -1.9752632478   -6.6756931354   -1.2252513532
H        1.1232555446   -0.2807380557   -0.9506655521
45   

C       -2.7033819149   -1.0285849418   -0.3954020565
C       -1.6189880160   -0.0396300047   -0.3159922735
C       -0.4350770118   -0.6195357789    0.1036929767
C       -4.0891849158   -0.8088753316   -0.7992456518
C       -2.3016453276   -2.2794320732   -0.0400021758
C       -4.5155391311   -3.1244292044   -0.4396173873
C       -7.2667905037   -1.3441393991   -0.1030883946
C       -8.4009235497   -0.5940718594   -0.1939306861
C       -1.8027799390    1.4173232736   -0.6697640702
C       -9.7661127209   -1.1833961121   -0.4744361635
C       -8.2240146822    0.8724063975   -0.5066843273
C       -1.0054433584   -5.6638222154   -2.8638734460
C        0.8979870147    0.0391718216    0.3307530994
C       -6.3512485593   -1.6852881003   -1.2584106772
C       -2.7559542585   -4.7101649578    0.2938010101
C       -2.4286500825   -5.5446599701   -0.9458517410
N       -4.9789183506   -1.8671442005   -0.7942324917
N       -3.1950590118   -3.3570539498   -0.0587513682
O       -4.4640877594    0.2991510005   -1.1589615166
O       -5.2956227822   -4.0698990649   -0.4562273411
O        1.8062159308   -0.4331629969   -0.6624284255
O       -1.3319798654   -4.9634626424   -1.6604576122
S       -0.6019497228   -2.3476086482    0.4100556758
H       -7.3531322926   -2.1943041383    0.5647673011
H       -2.4878717490    1.8869112448    0.0425457801
H       -0.8608752273    1.9681133148   -0.6625521910
H       -2.2296265797    1.5062882969   -1.6731618945
H      -10.5082392153   -0.3991805193   -0.6524999964
H       -9.7204833327   -1.8299696060   -1.3558966956
H      -10.0953125005   -1.7805625382    0.3810235095
H       -8.8928974550    1.1793419522   -1.3168538796
H       -8.4469518299    1.4716329638    0.3805686633
H       -7.1970356539    1.0887026482   -0.8192350949
H       -0.1193092843   -5.2139047144   -3.3217739122
H       -1.8341509067   -5.6046501998   -3.5765103716
H       -0.7898410414   -6.7157849365   -2.6508513046
H        0.8218031125    1.1272320053    0.2731928165
H        1.2724297788   -0.2161981030    1.3270716245
H       -6.4065805235   -0.9026141505   -2.0233420578
H       -6.7132474677   -2.5969623943   -1.7466493417
H       -3.5435098067   -5.2140739317    0.8638451084
H       -1.8811513475   -4.6789584775    0.9487448375
H       -3.3112121499   -5.6069031563   -1.5914129078
H       -2.1637786871   -6.5593305311   -0.6318036409
H        1.3776652102   -0.4402017613   -1.5369673436
45   

C       -2.7104569699   -1.0484568320   -0.4347690388
C       -1.6316846200   -0.0549119920   -0.3372386333
C       -0.4514885601   -0.6305989948    0.0984811079
C       -4.0903569188   -0.8341954368   -0.8610888678
C       -2.3088271082   -2.2981391873   -0.0755783401
C       -4.5139069136   -3.1507793949   -0.5069202881
C       -7.2821257198   -1.4247477250   -0.2036384064
C       -8.3521866338   -0.5912627550   -0.2664945321
C       -1.8180527763    1.4024197658   -0.6882169288
C       -9.7753604488   -1.0971456640   -0.3293707029
C       -8.1215160335    0.8359864794   -0.7029110244
C       -0.9683640493   -5.6645356235   -2.8986293578
C        0.8753526576    0.0331154619    0.3467673396
C       -6.3444621395   -1.7197311094   -1.3495399044
C       -2.7572455874   -4.7317759212    0.2437252722
C       -2.4118224801   -5.5604446225   -0.9949492493
N       -4.9775131934   -1.8947488800   -0.8661766444
N       -3.1975399740   -3.3792041504   -0.1094013174
O       -4.4605386238    0.2707525856   -1.2344515210
O       -5.2895932832   -4.0996475761   -0.5363591801
O        1.8007740796   -0.4348047686   -0.6325268997
O       -1.3091854328   -4.9722279102   -1.6944992995
S       -0.6155367409   -2.3600216874    0.3989389472
H       -7.4298544643   -2.3045646592    0.4132718311
H       -2.5268240541    1.8621435858    0.0071736160
H       -0.8818991815    1.9616628464   -0.6510567088
H       -2.2177733443    1.4930600959   -1.7025906531
H      -10.4826449077   -0.2688518330   -0.4355230582
H       -9.8948839444   -1.7722732097   -1.1820326878
H      -10.0182084825   -1.6426820399    0.5873148685
H       -8.7824356685    1.0923851895   -1.5368326021
H       -8.3268281397    1.5150053835    0.1295937959
H       -7.0883571121    0.9970030521   -1.0250623303
H       -0.0786552467   -5.2097096218   -3.3445934246
H       -1.7897491053   -5.6031323689   -3.6195123594
H       -0.7523561134   -6.7172305619   -2.6896710276
H        0.7961286845    1.1209052672    0.2888149034
H        1.2352458833   -0.2216566680    1.3485845780
H       -6.3988479736   -0.9263273687   -2.1029499125
H       -6.6822989913   -2.6273934123   -1.8619967566
H       -3.5495300343   -5.2408035831    0.8025482722
H       -1.8904035039   -4.6994716418    0.9091081064
H       -3.2864471934   -5.6240242498   -1.6510998566
H       -2.1464411606   -6.5751435855   -0.6814393410
H        1.3862886431   -0.4415399449   -1.5138259796
45   

C       -2.7442718353   -1.0450151336   -0.4306134522
C       -1.6735324244   -0.0445504716   -0.3154755899
C       -0.5006771266   -0.6103261189    0.1519092935
C       -4.1136256775   -0.8421585310   -0.8943599531
C       -2.3450126839   -2.2893762896   -0.0516392786
C       -4.5359157814   -3.1562528561   -0.5261918338
C       -7.3268703128   -1.5100313932   -0.2841902109
C       -8.3277996070   -0.6008733767   -0.2881335321
C       -1.8613985104    1.4096695518   -0.6787178591
C       -9.7770317908   -0.9995108564   -0.1330395164
C       -8.0563000329    0.7997760695   -0.7809505986
C       -0.9333307918   -5.6570702116   -2.8309635563
C        0.8167150254    0.0622733445    0.4257242481
C       -6.3571727435   -1.7427652317   -1.4155981647
C       -2.7876776027   -4.7230834275    0.2725058858
C       -2.4114274415   -5.5564914878   -0.9539118437
N       -4.9981057565   -1.9052219577   -0.9045801666
N       -3.2274439129   -3.3750717726   -0.0979773906
O       -4.4743081376    0.2548202094   -1.2985327607
O       -5.3052964409   -4.1098765732   -0.5678787859
O        1.7673133757   -0.4094242675   -0.5272729459
O       -1.2977521419   -4.9654928842   -1.6333666858
S       -0.6628477475   -2.3382151738    0.4625035588
H       -7.5214316879   -2.4140148470    0.2829148252
H       -2.6038115262    1.8632082807   -0.0150675751
H       -0.9345796954    1.9803914227   -0.6032915404
H       -2.2197114813    1.4925619754   -1.7091187400
H      -10.4254036337   -0.1179478755   -0.1254382530
H      -10.0768264168   -1.6476878655   -0.9619266908
H       -9.9187924906   -1.5413918964    0.8067964375
H       -8.5969212510    0.9810458627   -1.7151192462
H       -8.3910879040    1.5267684337   -0.0351773715
H       -6.9900694079    0.9669276181   -0.9564077005
H       -0.0391564347   -5.1975157121   -3.2629258266
H       -1.7431684022   -5.6013278332   -3.5652564419
H       -0.7146464917   -6.7082184434   -2.6171038009
H        0.7340211080    1.1490878112    0.3561796742
H        1.1540073208   -0.1819470584    1.4379746602
H       -6.4133475080   -0.9295938658   -2.1472985295
H       -6.6593570339   -2.6425453112   -1.9630753207
H       -3.5890131450   -5.2332151073    0.8172245304
H       -1.9353567648   -4.6822102948    0.9559336201
H       -3.2717361008   -5.6289117691   -1.6278374211
H       -2.1466496938   -6.5678194845   -0.6292484961
H        1.3742904934   -0.4244022703   -1.4182597904
45   

C       -2.7081052711   -1.1038403263   -0.5708653897
C       -1.6417107719   -0.1034496639   -0.4203795975
C       -0.4801141772   -0.6723216628    0.0706510741
C       -4.0663945842   -0.8978098526   -1.0647015111
C       -2.3167740659   -2.3512634749   -0.1935405529
C       -4.4951248312   -3.2154864818   -0.7271567108
C       -7.2849762164   -1.6028919288   -0.5073886239
C       -8.2142093244   -0.6281207268   -0.4328694689
C       -1.8215093287    1.3538429978   -0.7752931761
C       -9.6361699694   -0.9280679397   -0.0197569185
C       -7.9076595515    0.7461446434   -0.9755090139
C       -0.8510906899   -5.6920545836   -2.9762444834
C        0.8289411948   -0.0005352884    0.3833622473
C       -6.3013169311   -1.7928653341   -1.6318915110
C       -2.7651160345   -4.7880184785    0.0991130576
C       -2.3628202207   -5.6118017887   -1.1254361998
N       -4.9497223542   -1.9611650733   -1.1035395727
N       -3.1968053208   -3.4372036192   -0.2705318125
O       -4.4185237118    0.2025273101   -1.4674928927
O       -5.2623675401   -4.1692888967   -0.7959772136
O        1.8009358054   -0.4540922378   -0.5567359915
O       -1.2353035095   -5.0151382856   -1.7764867287
S       -0.6475768642   -2.4031919979    0.3610226081
H       -7.5035214853   -2.5165036113    0.0350767578
H       -2.5759205476    1.8027569276   -0.1221147171
H       -0.8955622639    1.9227418782   -0.6780821551
H       -2.1600394767    1.4456010065   -1.8116039685
H      -10.1883842870   -0.0060296156    0.1851231173
H      -10.1487233495   -1.4722186986   -0.8186581780
H       -9.6452823882   -1.5420292199    0.8859495321
H       -8.1182304103    0.7815779568   -2.0486276558
H       -8.5179409874    1.5037976551   -0.4752376461
H       -6.8568519819    1.0012594735   -0.8112805194
H        0.0501639636   -5.2274903057   -3.3876244190
H       -1.6485928447   -5.6271487922   -3.7231882912
H       -0.6361405411   -6.7457860849   -2.7715331742
H        0.7439582260    1.0870354393    0.3296230486
H        1.1454481303   -0.2599915077    1.3985331283
H       -6.3515866745   -0.9571113327   -2.3379693089
H       -6.5879397643   -2.6778986215   -2.2108748826
H       -3.5780047190   -5.3020968518    0.6225964432
H       -1.9275485765   -4.7526545583    0.8008312335
H       -3.2087681671   -5.6792250813   -1.8178165637
H       -2.1044479371   -6.6255425099   -0.8031797767
H        1.4262701478   -0.4577177937   -1.4557114460
45   

C       -2.7143945619   -1.1471647034   -0.6605443572
C       -1.6589899552   -0.1404841218   -0.4776802059
C       -0.5063719389   -0.7043235258    0.0394766862
C       -4.0616626049   -0.9471482974   -1.1859042512
C       -2.3241189788   -2.3940942310   -0.2805953212
C       -4.4820643137   -3.2700190146   -0.8750354217
C       -7.2827707336   -1.7144298619   -0.6877526828
C       -8.1476402178   -0.6959022256   -0.5233769872
C       -1.8384456743    1.3175095825   -0.8299956582
C       -9.4861390029   -0.9135484976    0.1424298470
C       -7.9008521801    0.6381743252   -1.1836142566
C       -0.7784095799   -5.7055185992   -3.0506935849
C        0.7894938816   -0.0251125120    0.3887163245
C       -6.2804994148   -1.8518735650   -1.8024154655
C       -2.7636608144   -4.8351509164   -0.0117851336
C       -2.3271407131   -5.6506358467   -1.2300251149
N       -4.9364273827   -2.0162466943   -1.2534094131
N       -3.1945154982   -3.4854069546   -0.3860382817
O       -4.4115446850    0.1538746183   -1.5886130311
O       -5.2401098512   -4.2288907318   -0.9703522919
O        1.7851420021   -0.4577337064   -0.5363508694
O       -1.1885222736   -5.0434330767   -1.8512850423
S       -0.6691180483   -2.4379187916    0.3157731567
H       -7.4835174110   -2.6303944519   -0.1424268237
H       -2.6066087350    1.7606620205   -0.1890272186
H       -0.9165902775    1.8895669939   -0.7138814540
H       -2.1580297954    1.4123035626   -1.8720230363
H       -9.4776383897   -0.4780477103    1.1460070237
H      -10.2813532269   -0.4389152114   -0.4404937362
H       -9.7140894180   -1.9806881613    0.2255663704
H       -8.1135722155    0.5771396459   -2.2549453658
H       -8.5461879485    1.4056852009   -0.7457532982
H       -6.8631828835    0.9523279603   -1.0403674333
H        0.1277914918   -5.2318850213   -3.4402667868
H       -1.5622102362   -5.6369003305   -3.8116867717
H       -0.5616667121   -6.7601997132   -2.8529258611
H        0.6953617774    1.0622827793    0.3471698658
H        1.0868454489   -0.2947904876    1.4070087554
H       -6.3285453073   -0.9986367403   -2.4866709654
H       -6.5426270624   -2.7240629686   -2.4116965368
H       -3.5858236504   -5.3563638295    0.4897051475
H       -1.9433709840   -4.7979590595    0.7099595109
H       -3.1560902180   -5.7203855013   -1.9424547288
H       -2.0696356141   -6.6641233380   -0.9063377646
H        1.4288813426   -0.4550609190   -1.4427779882
45   

C       -2.7636110299   -1.1332152323   -0.6899372694
C       -1.7149828218   -0.1237417628   -0.4845715931
C       -0.5802495873   -0.6805446176    0.0777984089
C       -4.0913269176   -0.9407544394   -1.2651647232
C       -2.3869816184   -2.3747660264   -0.2803362394
C       -4.5258832918   -3.2573944851   -0.9316242345
C       -7.3275325407   -1.7459217937   -0.8162425047
C       -8.1083718024   -0.6834408693   -0.5526333103
C       -1.8847134303    1.3302104409   -0.8580084324
C       -9.3150390816   -0.8215869331    0.3455696523
C       -7.8784863299    0.6453547597   -1.2301239538
C       -0.7604530004   -5.7107445563   -2.9649031525
C        0.7035550980    0.0031470065    0.4613279067
C       -6.3021051296   -1.8484510757   -1.9141510673
C       -2.8360435790   -4.8120947005    0.0038659436
C       -2.3611342735   -5.6414451735   -1.1902799506
N       -4.9681082698   -2.0080510619   -1.3382618825
N       -3.2541870683   -3.4670707576   -0.4003200192
O       -4.4202640777    0.1514726799   -1.7070794582
O       -5.2806261450   -4.2175630603   -1.0396717834
O        1.7293522554   -0.4421954698   -0.4238695045
O       -1.2032960307   -5.0408031079   -1.7816635542
S       -0.7526986792   -2.4104452358    0.3712169632
H       -7.5411565835   -2.6719531744   -0.2932020392
H       -2.6866083771    1.7739802990   -0.2602068299
H       -0.9737160420    1.9094475842   -0.6998255521
H       -2.1524652785    1.4140647273   -1.9154783423
H       -9.0884068515   -0.4186801864    1.3371959523
H      -10.1642812022   -0.2720939322   -0.0719832043
H       -9.6074244824   -1.8708427000    0.4517928756
H       -8.1732102077    0.5910080157   -2.2821287204
H       -8.4687017802    1.4290849774   -0.7457724925
H       -6.8267216373    0.9354844574   -1.1649597429
H        0.1561538694   -5.2395870236   -3.3325042657
H       -1.5229945339   -5.6472590081   -3.7476358568
H       -0.5493830938   -6.7640370700   -2.7540913221
H        0.6119473441    1.0898847727    0.4017905085
H        0.9663461014   -0.2527764671    1.4925913514
H       -6.3482594802   -0.9826234925   -2.5824505344
H       -6.5396199263   -2.7122419270   -2.5451125081
H       -3.6739337868   -5.3274136665    0.4850047746
H       -2.0391403013   -4.7661965513    0.7508718785
H       -3.1671051475   -5.7196185604   -1.9277725207
H       -2.1139421782   -6.6510154739   -0.8469635523
H        1.4038809740   -0.4509060922   -1.3417788596
45   

C       -2.7799924745   -1.1833824930   -0.7853642938
C       -1.7499499978   -0.1633658979   -0.5418419513
C       -0.6257533299   -0.7112981022    0.0495942955
C       -4.0907721046   -1.0021983924   -1.4011550687
C       -2.4022045059   -2.4231311693   -0.3719446210
C       -4.5149148619   -3.3224954143   -1.0836995150
C       -7.3203996105   -1.8454659142   -0.9846058824
C       -8.0217109775   -0.7610218053   -0.6115480515
C       -1.9285085914    1.2920509517   -0.9054717578
C       -9.0249901880   -0.8520178598    0.5144042567
C       -7.8546992672    0.5666476126   -1.3098965154
C       -0.6659243741   -5.7201042242   -3.0297953456
C        0.6382607671   -0.0159870593    0.4755865670
C       -6.2898281333   -1.9207724633   -2.0803237316
C       -2.8337818646   -4.8663541409   -0.1147663081
C       -2.3162865464   -5.6823476588   -1.3002055405
N       -4.9589148703   -2.0750764693   -1.4944705333
N       -3.2544700934   -3.5233344596   -0.5227489647
O       -4.4103301412    0.0849461318   -1.8615891833
O       -5.2582128746   -4.2888012316   -1.2139125068
O        1.6928717358   -0.4381847697   -0.3867360752
O       -1.1483055776   -5.0653645242   -1.8535817882
S       -0.7871252202   -2.4450409365    0.3265207295
H       -7.5205202340   -2.7793425033   -0.4702037289
H       -2.7666344036    1.7133581063   -0.3420554383
H       -1.0379614178    1.8861683875   -0.6949181238
H       -2.1466314833    1.3845095093   -1.9735760578
H       -8.5723149644   -0.4967606224    1.4449846349
H       -9.9029831860   -0.2375422395    0.2928755221
H       -9.3598609973   -1.8839368291    0.6583755963
H       -8.2894788282    0.5232494723   -2.3126072141
H       -8.3568515257    1.3606742943   -0.7491446237
H       -6.7993991667    0.8376131974   -1.3868113362
H        0.2550339305   -5.2357233101   -3.3681734260
H       -1.4074842143   -5.6581798348   -3.8325528033
H       -0.4489226207   -6.7727807507   -2.8219964776
H        0.5345122875    1.0701228164    0.4256189916
H        0.8765696241   -0.2804705794    1.5106322783
H       -6.3420504246   -1.0433219747   -2.7329233672
H       -6.5142599733   -2.7766180233   -2.7267110014
H       -3.6792996976   -5.3937437165    0.3391757767
H       -2.0589157022   -4.8168171629    0.6548602032
H       -3.0999866206   -5.7634543582   -2.0610241249
H       -2.0683401442   -6.6916805280   -0.9567658763
H        1.3920451790   -0.4402662501   -1.3130681657
